version 3
run General-0-20260508-14:04:54-2306
attr configname General
attr datetime 20260508-14:04:54
attr datetimef 20260508-140454
attr experiment General
attr inifile omnetpp.ini
attr iterationvars ""
attr iterationvarsd ""
attr iterationvarsf ""
attr measurement ""
attr network PubSubNetwork
attr processid 2306
attr repetition 0
attr replication #0
attr resultdir results
attr runnumber 0
attr seedset 0
config image-path ../../../omnetpp-6.3.0/inet4.5/images
config network PubSubNetwork
config sim-time-limit 1s
config *.numSubscribers 50
config *.numPublishers 1
config **.statistic-recording true
config **.scalar-recording true
config **.vector-recording true
config record-eventlog true
config *.visualizer.osgVisualizer.typename ""
config *.configurator.typename Ipv4NetworkConfigurator
config *.configurator.addStaticRoutes false
config *.publisher[*].numApps 1
config *.publisher[*].app[0].typename Publisher
config *.publisher[*].app[0].destAddresses "\"239.1.1.1\""
config *.publisher[*].app[0].localPort 6000
config *.publisher[*].app[0].destPort 5000
config *.publisher[*].app[0].joinLocalMulticastGroups false
config *.publisher[*].app[0].messageLength 1500B
config *.publisher[*].app[0].sendInterval 100ms
config *.publisher[*].app[0].multicastInterface "\"eth0\""
config *.publisher[*].app[0].publishedDataSet 15.2us
config *.publisher[*].app[0].dataSetWriter 15.2us
config *.publisher[*].app[0].writerGroup 15.2us
config *.publisher[*].app[0].processingSendTime 9.49us
config *.subscriber[*].numApps 1
config *.subscriber[*].app[0].typename Subscriber
config *.subscriber[*].app[0].localPort 5000
config *.subscriber[*].app[0].multicastGroup "\"239.1.1.1\""
config *.subscriber[*].ipv4.igmp.enabled true
config *.subscriber[*].app[0].subscribedDataSet 129.073us
config *.subscriber[*].app[0].dataSetReader 129.073us
config *.subscriber[*].app[0].readerGroup 129.073us
config *.subscriber[*].app[0].processingRecTime 108.57us

par PubSubNetwork.publisher[0].ethg$o[0].channel typename "\"inet.node.ethernet.Eth100M\""
par PubSubNetwork.publisher[0].ethg$o[0].channel disabled false
attr mutable ""
par PubSubNetwork.publisher[0].ethg$o[0].channel delay 2.65e-06s
attr mutable ""
attr unit s
par PubSubNetwork.publisher[0].ethg$o[0].channel datarate 1e+08bps
attr mutable ""
attr unit bps
par PubSubNetwork.publisher[0].ethg$o[0].channel ber 0
attr mutable ""
par PubSubNetwork.publisher[0].ethg$o[0].channel per 0
attr mutable ""
par PubSubNetwork.publisher[0].ethg$o[0].channel length 10m
attr unit m
par PubSubNetwork.switch.ethg$o[0].channel typename "\"inet.node.ethernet.Eth100M\""
par PubSubNetwork.switch.ethg$o[0].channel disabled false
attr mutable ""
par PubSubNetwork.switch.ethg$o[0].channel delay 2.65e-06s
attr mutable ""
attr unit s
par PubSubNetwork.switch.ethg$o[0].channel datarate 1e+08bps
attr mutable ""
attr unit bps
par PubSubNetwork.switch.ethg$o[0].channel ber 0
attr mutable ""
par PubSubNetwork.switch.ethg$o[0].channel per 0
attr mutable ""
par PubSubNetwork.switch.ethg$o[0].channel length 10m
attr unit m
par PubSubNetwork.switch.ethg$o[1].channel typename "\"inet.node.ethernet.Eth100M\""
par PubSubNetwork.switch.ethg$o[1].channel disabled false
attr mutable ""
par PubSubNetwork.switch.ethg$o[1].channel delay 2.65e-06s
attr mutable ""
attr unit s
par PubSubNetwork.switch.ethg$o[1].channel datarate 1e+08bps
attr mutable ""
attr unit bps
par PubSubNetwork.switch.ethg$o[1].channel ber 0
attr mutable ""
par PubSubNetwork.switch.ethg$o[1].channel per 0
attr mutable ""
par PubSubNetwork.switch.ethg$o[1].channel length 10m
attr unit m
par PubSubNetwork.subscriber[0].ethg$o[0].channel typename "\"inet.node.ethernet.Eth100M\""
par PubSubNetwork.subscriber[0].ethg$o[0].channel disabled false
attr mutable ""
par PubSubNetwork.subscriber[0].ethg$o[0].channel delay 2.65e-06s
attr mutable ""
attr unit s
par PubSubNetwork.subscriber[0].ethg$o[0].channel datarate 1e+08bps
attr mutable ""
attr unit bps
par PubSubNetwork.subscriber[0].ethg$o[0].channel ber 0
attr mutable ""
par PubSubNetwork.subscriber[0].ethg$o[0].channel per 0
attr mutable ""
par PubSubNetwork.subscriber[0].ethg$o[0].channel length 10m
attr unit m
par PubSubNetwork.switch.ethg$o[2].channel typename "\"inet.node.ethernet.Eth100M\""
par PubSubNetwork.switch.ethg$o[2].channel disabled false
attr mutable ""
par PubSubNetwork.switch.ethg$o[2].channel delay 2.65e-06s
attr mutable ""
attr unit s
par PubSubNetwork.switch.ethg$o[2].channel datarate 1e+08bps
attr mutable ""
attr unit bps
par PubSubNetwork.switch.ethg$o[2].channel ber 0
attr mutable ""
par PubSubNetwork.switch.ethg$o[2].channel per 0
attr mutable ""
par PubSubNetwork.switch.ethg$o[2].channel length 10m
attr unit m
par PubSubNetwork.subscriber[1].ethg$o[0].channel typename "\"inet.node.ethernet.Eth100M\""
par PubSubNetwork.subscriber[1].ethg$o[0].channel disabled false
attr mutable ""
par PubSubNetwork.subscriber[1].ethg$o[0].channel delay 2.65e-06s
attr mutable ""
attr unit s
par PubSubNetwork.subscriber[1].ethg$o[0].channel datarate 1e+08bps
attr mutable ""
attr unit bps
par PubSubNetwork.subscriber[1].ethg$o[0].channel ber 0
attr mutable ""
par PubSubNetwork.subscriber[1].ethg$o[0].channel per 0
attr mutable ""
par PubSubNetwork.subscriber[1].ethg$o[0].channel length 10m
attr unit m
par PubSubNetwork.switch.ethg$o[3].channel typename "\"inet.node.ethernet.Eth100M\""
par PubSubNetwork.switch.ethg$o[3].channel disabled false
attr mutable ""
par PubSubNetwork.switch.ethg$o[3].channel delay 2.65e-06s
attr mutable ""
attr unit s
par PubSubNetwork.switch.ethg$o[3].channel datarate 1e+08bps
attr mutable ""
attr unit bps
par PubSubNetwork.switch.ethg$o[3].channel ber 0
attr mutable ""
par PubSubNetwork.switch.ethg$o[3].channel per 0
attr mutable ""
par PubSubNetwork.switch.ethg$o[3].channel length 10m
attr unit m
par PubSubNetwork.subscriber[2].ethg$o[0].channel typename "\"inet.node.ethernet.Eth100M\""
par PubSubNetwork.subscriber[2].ethg$o[0].channel disabled false
attr mutable ""
par PubSubNetwork.subscriber[2].ethg$o[0].channel delay 2.65e-06s
attr mutable ""
attr unit s
par PubSubNetwork.subscriber[2].ethg$o[0].channel datarate 1e+08bps
attr mutable ""
attr unit bps
par PubSubNetwork.subscriber[2].ethg$o[0].channel ber 0
attr mutable ""
par PubSubNetwork.subscriber[2].ethg$o[0].channel per 0
attr mutable ""
par PubSubNetwork.subscriber[2].ethg$o[0].channel length 10m
attr unit m
par PubSubNetwork.switch.ethg$o[4].channel typename "\"inet.node.ethernet.Eth100M\""
par PubSubNetwork.switch.ethg$o[4].channel disabled false
attr mutable ""
par PubSubNetwork.switch.ethg$o[4].channel delay 2.65e-06s
attr mutable ""
attr unit s
par PubSubNetwork.switch.ethg$o[4].channel datarate 1e+08bps
attr mutable ""
attr unit bps
par PubSubNetwork.switch.ethg$o[4].channel ber 0
attr mutable ""
par PubSubNetwork.switch.ethg$o[4].channel per 0
attr mutable ""
par PubSubNetwork.switch.ethg$o[4].channel length 10m
attr unit m
par PubSubNetwork.subscriber[3].ethg$o[0].channel typename "\"inet.node.ethernet.Eth100M\""
par PubSubNetwork.subscriber[3].ethg$o[0].channel disabled false
attr mutable ""
par PubSubNetwork.subscriber[3].ethg$o[0].channel delay 2.65e-06s
attr mutable ""
attr unit s
par PubSubNetwork.subscriber[3].ethg$o[0].channel datarate 1e+08bps
attr mutable ""
attr unit bps
par PubSubNetwork.subscriber[3].ethg$o[0].channel ber 0
attr mutable ""
par PubSubNetwork.subscriber[3].ethg$o[0].channel per 0
attr mutable ""
par PubSubNetwork.subscriber[3].ethg$o[0].channel length 10m
attr unit m
par PubSubNetwork.switch.ethg$o[5].channel typename "\"inet.node.ethernet.Eth100M\""
par PubSubNetwork.switch.ethg$o[5].channel disabled false
attr mutable ""
par PubSubNetwork.switch.ethg$o[5].channel delay 2.65e-06s
attr mutable ""
attr unit s
par PubSubNetwork.switch.ethg$o[5].channel datarate 1e+08bps
attr mutable ""
attr unit bps
par PubSubNetwork.switch.ethg$o[5].channel ber 0
attr mutable ""
par PubSubNetwork.switch.ethg$o[5].channel per 0
attr mutable ""
par PubSubNetwork.switch.ethg$o[5].channel length 10m
attr unit m
par PubSubNetwork.subscriber[4].ethg$o[0].channel typename "\"inet.node.ethernet.Eth100M\""
par PubSubNetwork.subscriber[4].ethg$o[0].channel disabled false
attr mutable ""
par PubSubNetwork.subscriber[4].ethg$o[0].channel delay 2.65e-06s
attr mutable ""
attr unit s
par PubSubNetwork.subscriber[4].ethg$o[0].channel datarate 1e+08bps
attr mutable ""
attr unit bps
par PubSubNetwork.subscriber[4].ethg$o[0].channel ber 0
attr mutable ""
par PubSubNetwork.subscriber[4].ethg$o[0].channel per 0
attr mutable ""
par PubSubNetwork.subscriber[4].ethg$o[0].channel length 10m
attr unit m
par PubSubNetwork.switch.ethg$o[6].channel typename "\"inet.node.ethernet.Eth100M\""
par PubSubNetwork.switch.ethg$o[6].channel disabled false
attr mutable ""
par PubSubNetwork.switch.ethg$o[6].channel delay 2.65e-06s
attr mutable ""
attr unit s
par PubSubNetwork.switch.ethg$o[6].channel datarate 1e+08bps
attr mutable ""
attr unit bps
par PubSubNetwork.switch.ethg$o[6].channel ber 0
attr mutable ""
par PubSubNetwork.switch.ethg$o[6].channel per 0
attr mutable ""
par PubSubNetwork.switch.ethg$o[6].channel length 10m
attr unit m
par PubSubNetwork.subscriber[5].ethg$o[0].channel typename "\"inet.node.ethernet.Eth100M\""
par PubSubNetwork.subscriber[5].ethg$o[0].channel disabled false
attr mutable ""
par PubSubNetwork.subscriber[5].ethg$o[0].channel delay 2.65e-06s
attr mutable ""
attr unit s
par PubSubNetwork.subscriber[5].ethg$o[0].channel datarate 1e+08bps
attr mutable ""
attr unit bps
par PubSubNetwork.subscriber[5].ethg$o[0].channel ber 0
attr mutable ""
par PubSubNetwork.subscriber[5].ethg$o[0].channel per 0
attr mutable ""
par PubSubNetwork.subscriber[5].ethg$o[0].channel length 10m
attr unit m
par PubSubNetwork.switch.ethg$o[7].channel typename "\"inet.node.ethernet.Eth100M\""
par PubSubNetwork.switch.ethg$o[7].channel disabled false
attr mutable ""
par PubSubNetwork.switch.ethg$o[7].channel delay 2.65e-06s
attr mutable ""
attr unit s
par PubSubNetwork.switch.ethg$o[7].channel datarate 1e+08bps
attr mutable ""
attr unit bps
par PubSubNetwork.switch.ethg$o[7].channel ber 0
attr mutable ""
par PubSubNetwork.switch.ethg$o[7].channel per 0
attr mutable ""
par PubSubNetwork.switch.ethg$o[7].channel length 10m
attr unit m
par PubSubNetwork.subscriber[6].ethg$o[0].channel typename "\"inet.node.ethernet.Eth100M\""
par PubSubNetwork.subscriber[6].ethg$o[0].channel disabled false
attr mutable ""
par PubSubNetwork.subscriber[6].ethg$o[0].channel delay 2.65e-06s
attr mutable ""
attr unit s
par PubSubNetwork.subscriber[6].ethg$o[0].channel datarate 1e+08bps
attr mutable ""
attr unit bps
par PubSubNetwork.subscriber[6].ethg$o[0].channel ber 0
attr mutable ""
par PubSubNetwork.subscriber[6].ethg$o[0].channel per 0
attr mutable ""
par PubSubNetwork.subscriber[6].ethg$o[0].channel length 10m
attr unit m
par PubSubNetwork.switch.ethg$o[8].channel typename "\"inet.node.ethernet.Eth100M\""
par PubSubNetwork.switch.ethg$o[8].channel disabled false
attr mutable ""
par PubSubNetwork.switch.ethg$o[8].channel delay 2.65e-06s
attr mutable ""
attr unit s
par PubSubNetwork.switch.ethg$o[8].channel datarate 1e+08bps
attr mutable ""
attr unit bps
par PubSubNetwork.switch.ethg$o[8].channel ber 0
attr mutable ""
par PubSubNetwork.switch.ethg$o[8].channel per 0
attr mutable ""
par PubSubNetwork.switch.ethg$o[8].channel length 10m
attr unit m
par PubSubNetwork.subscriber[7].ethg$o[0].channel typename "\"inet.node.ethernet.Eth100M\""
par PubSubNetwork.subscriber[7].ethg$o[0].channel disabled false
attr mutable ""
par PubSubNetwork.subscriber[7].ethg$o[0].channel delay 2.65e-06s
attr mutable ""
attr unit s
par PubSubNetwork.subscriber[7].ethg$o[0].channel datarate 1e+08bps
attr mutable ""
attr unit bps
par PubSubNetwork.subscriber[7].ethg$o[0].channel ber 0
attr mutable ""
par PubSubNetwork.subscriber[7].ethg$o[0].channel per 0
attr mutable ""
par PubSubNetwork.subscriber[7].ethg$o[0].channel length 10m
attr unit m
par PubSubNetwork.switch.ethg$o[9].channel typename "\"inet.node.ethernet.Eth100M\""
par PubSubNetwork.switch.ethg$o[9].channel disabled false
attr mutable ""
par PubSubNetwork.switch.ethg$o[9].channel delay 2.65e-06s
attr mutable ""
attr unit s
par PubSubNetwork.switch.ethg$o[9].channel datarate 1e+08bps
attr mutable ""
attr unit bps
par PubSubNetwork.switch.ethg$o[9].channel ber 0
attr mutable ""
par PubSubNetwork.switch.ethg$o[9].channel per 0
attr mutable ""
par PubSubNetwork.switch.ethg$o[9].channel length 10m
attr unit m
par PubSubNetwork.subscriber[8].ethg$o[0].channel typename "\"inet.node.ethernet.Eth100M\""
par PubSubNetwork.subscriber[8].ethg$o[0].channel disabled false
attr mutable ""
par PubSubNetwork.subscriber[8].ethg$o[0].channel delay 2.65e-06s
attr mutable ""
attr unit s
par PubSubNetwork.subscriber[8].ethg$o[0].channel datarate 1e+08bps
attr mutable ""
attr unit bps
par PubSubNetwork.subscriber[8].ethg$o[0].channel ber 0
attr mutable ""
par PubSubNetwork.subscriber[8].ethg$o[0].channel per 0
attr mutable ""
par PubSubNetwork.subscriber[8].ethg$o[0].channel length 10m
attr unit m
par PubSubNetwork.switch.ethg$o[10].channel typename "\"inet.node.ethernet.Eth100M\""
par PubSubNetwork.switch.ethg$o[10].channel disabled false
attr mutable ""
par PubSubNetwork.switch.ethg$o[10].channel delay 2.65e-06s
attr mutable ""
attr unit s
par PubSubNetwork.switch.ethg$o[10].channel datarate 1e+08bps
attr mutable ""
attr unit bps
par PubSubNetwork.switch.ethg$o[10].channel ber 0
attr mutable ""
par PubSubNetwork.switch.ethg$o[10].channel per 0
attr mutable ""
par PubSubNetwork.switch.ethg$o[10].channel length 10m
attr unit m
par PubSubNetwork.subscriber[9].ethg$o[0].channel typename "\"inet.node.ethernet.Eth100M\""
par PubSubNetwork.subscriber[9].ethg$o[0].channel disabled false
attr mutable ""
par PubSubNetwork.subscriber[9].ethg$o[0].channel delay 2.65e-06s
attr mutable ""
attr unit s
par PubSubNetwork.subscriber[9].ethg$o[0].channel datarate 1e+08bps
attr mutable ""
attr unit bps
par PubSubNetwork.subscriber[9].ethg$o[0].channel ber 0
attr mutable ""
par PubSubNetwork.subscriber[9].ethg$o[0].channel per 0
attr mutable ""
par PubSubNetwork.subscriber[9].ethg$o[0].channel length 10m
attr unit m
par PubSubNetwork.switch.ethg$o[11].channel typename "\"inet.node.ethernet.Eth100M\""
par PubSubNetwork.switch.ethg$o[11].channel disabled false
attr mutable ""
par PubSubNetwork.switch.ethg$o[11].channel delay 2.65e-06s
attr mutable ""
attr unit s
par PubSubNetwork.switch.ethg$o[11].channel datarate 1e+08bps
attr mutable ""
attr unit bps
par PubSubNetwork.switch.ethg$o[11].channel ber 0
attr mutable ""
par PubSubNetwork.switch.ethg$o[11].channel per 0
attr mutable ""
par PubSubNetwork.switch.ethg$o[11].channel length 10m
attr unit m
par PubSubNetwork.subscriber[10].ethg$o[0].channel typename "\"inet.node.ethernet.Eth100M\""
par PubSubNetwork.subscriber[10].ethg$o[0].channel disabled false
attr mutable ""
par PubSubNetwork.subscriber[10].ethg$o[0].channel delay 2.65e-06s
attr mutable ""
attr unit s
par PubSubNetwork.subscriber[10].ethg$o[0].channel datarate 1e+08bps
attr mutable ""
attr unit bps
par PubSubNetwork.subscriber[10].ethg$o[0].channel ber 0
attr mutable ""
par PubSubNetwork.subscriber[10].ethg$o[0].channel per 0
attr mutable ""
par PubSubNetwork.subscriber[10].ethg$o[0].channel length 10m
attr unit m
par PubSubNetwork.switch.ethg$o[12].channel typename "\"inet.node.ethernet.Eth100M\""
par PubSubNetwork.switch.ethg$o[12].channel disabled false
attr mutable ""
par PubSubNetwork.switch.ethg$o[12].channel delay 2.65e-06s
attr mutable ""
attr unit s
par PubSubNetwork.switch.ethg$o[12].channel datarate 1e+08bps
attr mutable ""
attr unit bps
par PubSubNetwork.switch.ethg$o[12].channel ber 0
attr mutable ""
par PubSubNetwork.switch.ethg$o[12].channel per 0
attr mutable ""
par PubSubNetwork.switch.ethg$o[12].channel length 10m
attr unit m
par PubSubNetwork.subscriber[11].ethg$o[0].channel typename "\"inet.node.ethernet.Eth100M\""
par PubSubNetwork.subscriber[11].ethg$o[0].channel disabled false
attr mutable ""
par PubSubNetwork.subscriber[11].ethg$o[0].channel delay 2.65e-06s
attr mutable ""
attr unit s
par PubSubNetwork.subscriber[11].ethg$o[0].channel datarate 1e+08bps
attr mutable ""
attr unit bps
par PubSubNetwork.subscriber[11].ethg$o[0].channel ber 0
attr mutable ""
par PubSubNetwork.subscriber[11].ethg$o[0].channel per 0
attr mutable ""
par PubSubNetwork.subscriber[11].ethg$o[0].channel length 10m
attr unit m
par PubSubNetwork.switch.ethg$o[13].channel typename "\"inet.node.ethernet.Eth100M\""
par PubSubNetwork.switch.ethg$o[13].channel disabled false
attr mutable ""
par PubSubNetwork.switch.ethg$o[13].channel delay 2.65e-06s
attr mutable ""
attr unit s
par PubSubNetwork.switch.ethg$o[13].channel datarate 1e+08bps
attr mutable ""
attr unit bps
par PubSubNetwork.switch.ethg$o[13].channel ber 0
attr mutable ""
par PubSubNetwork.switch.ethg$o[13].channel per 0
attr mutable ""
par PubSubNetwork.switch.ethg$o[13].channel length 10m
attr unit m
par PubSubNetwork.subscriber[12].ethg$o[0].channel typename "\"inet.node.ethernet.Eth100M\""
par PubSubNetwork.subscriber[12].ethg$o[0].channel disabled false
attr mutable ""
par PubSubNetwork.subscriber[12].ethg$o[0].channel delay 2.65e-06s
attr mutable ""
attr unit s
par PubSubNetwork.subscriber[12].ethg$o[0].channel datarate 1e+08bps
attr mutable ""
attr unit bps
par PubSubNetwork.subscriber[12].ethg$o[0].channel ber 0
attr mutable ""
par PubSubNetwork.subscriber[12].ethg$o[0].channel per 0
attr mutable ""
par PubSubNetwork.subscriber[12].ethg$o[0].channel length 10m
attr unit m
par PubSubNetwork.switch.ethg$o[14].channel typename "\"inet.node.ethernet.Eth100M\""
par PubSubNetwork.switch.ethg$o[14].channel disabled false
attr mutable ""
par PubSubNetwork.switch.ethg$o[14].channel delay 2.65e-06s
attr mutable ""
attr unit s
par PubSubNetwork.switch.ethg$o[14].channel datarate 1e+08bps
attr mutable ""
attr unit bps
par PubSubNetwork.switch.ethg$o[14].channel ber 0
attr mutable ""
par PubSubNetwork.switch.ethg$o[14].channel per 0
attr mutable ""
par PubSubNetwork.switch.ethg$o[14].channel length 10m
attr unit m
par PubSubNetwork.subscriber[13].ethg$o[0].channel typename "\"inet.node.ethernet.Eth100M\""
par PubSubNetwork.subscriber[13].ethg$o[0].channel disabled false
attr mutable ""
par PubSubNetwork.subscriber[13].ethg$o[0].channel delay 2.65e-06s
attr mutable ""
attr unit s
par PubSubNetwork.subscriber[13].ethg$o[0].channel datarate 1e+08bps
attr mutable ""
attr unit bps
par PubSubNetwork.subscriber[13].ethg$o[0].channel ber 0
attr mutable ""
par PubSubNetwork.subscriber[13].ethg$o[0].channel per 0
attr mutable ""
par PubSubNetwork.subscriber[13].ethg$o[0].channel length 10m
attr unit m
par PubSubNetwork.switch.ethg$o[15].channel typename "\"inet.node.ethernet.Eth100M\""
par PubSubNetwork.switch.ethg$o[15].channel disabled false
attr mutable ""
par PubSubNetwork.switch.ethg$o[15].channel delay 2.65e-06s
attr mutable ""
attr unit s
par PubSubNetwork.switch.ethg$o[15].channel datarate 1e+08bps
attr mutable ""
attr unit bps
par PubSubNetwork.switch.ethg$o[15].channel ber 0
attr mutable ""
par PubSubNetwork.switch.ethg$o[15].channel per 0
attr mutable ""
par PubSubNetwork.switch.ethg$o[15].channel length 10m
attr unit m
par PubSubNetwork.subscriber[14].ethg$o[0].channel typename "\"inet.node.ethernet.Eth100M\""
par PubSubNetwork.subscriber[14].ethg$o[0].channel disabled false
attr mutable ""
par PubSubNetwork.subscriber[14].ethg$o[0].channel delay 2.65e-06s
attr mutable ""
attr unit s
par PubSubNetwork.subscriber[14].ethg$o[0].channel datarate 1e+08bps
attr mutable ""
attr unit bps
par PubSubNetwork.subscriber[14].ethg$o[0].channel ber 0
attr mutable ""
par PubSubNetwork.subscriber[14].ethg$o[0].channel per 0
attr mutable ""
par PubSubNetwork.subscriber[14].ethg$o[0].channel length 10m
attr unit m
par PubSubNetwork.switch.ethg$o[16].channel typename "\"inet.node.ethernet.Eth100M\""
par PubSubNetwork.switch.ethg$o[16].channel disabled false
attr mutable ""
par PubSubNetwork.switch.ethg$o[16].channel delay 2.65e-06s
attr mutable ""
attr unit s
par PubSubNetwork.switch.ethg$o[16].channel datarate 1e+08bps
attr mutable ""
attr unit bps
par PubSubNetwork.switch.ethg$o[16].channel ber 0
attr mutable ""
par PubSubNetwork.switch.ethg$o[16].channel per 0
attr mutable ""
par PubSubNetwork.switch.ethg$o[16].channel length 10m
attr unit m
par PubSubNetwork.subscriber[15].ethg$o[0].channel typename "\"inet.node.ethernet.Eth100M\""
par PubSubNetwork.subscriber[15].ethg$o[0].channel disabled false
attr mutable ""
par PubSubNetwork.subscriber[15].ethg$o[0].channel delay 2.65e-06s
attr mutable ""
attr unit s
par PubSubNetwork.subscriber[15].ethg$o[0].channel datarate 1e+08bps
attr mutable ""
attr unit bps
par PubSubNetwork.subscriber[15].ethg$o[0].channel ber 0
attr mutable ""
par PubSubNetwork.subscriber[15].ethg$o[0].channel per 0
attr mutable ""
par PubSubNetwork.subscriber[15].ethg$o[0].channel length 10m
attr unit m
par PubSubNetwork.switch.ethg$o[17].channel typename "\"inet.node.ethernet.Eth100M\""
par PubSubNetwork.switch.ethg$o[17].channel disabled false
attr mutable ""
par PubSubNetwork.switch.ethg$o[17].channel delay 2.65e-06s
attr mutable ""
attr unit s
par PubSubNetwork.switch.ethg$o[17].channel datarate 1e+08bps
attr mutable ""
attr unit bps
par PubSubNetwork.switch.ethg$o[17].channel ber 0
attr mutable ""
par PubSubNetwork.switch.ethg$o[17].channel per 0
attr mutable ""
par PubSubNetwork.switch.ethg$o[17].channel length 10m
attr unit m
par PubSubNetwork.subscriber[16].ethg$o[0].channel typename "\"inet.node.ethernet.Eth100M\""
par PubSubNetwork.subscriber[16].ethg$o[0].channel disabled false
attr mutable ""
par PubSubNetwork.subscriber[16].ethg$o[0].channel delay 2.65e-06s
attr mutable ""
attr unit s
par PubSubNetwork.subscriber[16].ethg$o[0].channel datarate 1e+08bps
attr mutable ""
attr unit bps
par PubSubNetwork.subscriber[16].ethg$o[0].channel ber 0
attr mutable ""
par PubSubNetwork.subscriber[16].ethg$o[0].channel per 0
attr mutable ""
par PubSubNetwork.subscriber[16].ethg$o[0].channel length 10m
attr unit m
par PubSubNetwork.switch.ethg$o[18].channel typename "\"inet.node.ethernet.Eth100M\""
par PubSubNetwork.switch.ethg$o[18].channel disabled false
attr mutable ""
par PubSubNetwork.switch.ethg$o[18].channel delay 2.65e-06s
attr mutable ""
attr unit s
par PubSubNetwork.switch.ethg$o[18].channel datarate 1e+08bps
attr mutable ""
attr unit bps
par PubSubNetwork.switch.ethg$o[18].channel ber 0
attr mutable ""
par PubSubNetwork.switch.ethg$o[18].channel per 0
attr mutable ""
par PubSubNetwork.switch.ethg$o[18].channel length 10m
attr unit m
par PubSubNetwork.subscriber[17].ethg$o[0].channel typename "\"inet.node.ethernet.Eth100M\""
par PubSubNetwork.subscriber[17].ethg$o[0].channel disabled false
attr mutable ""
par PubSubNetwork.subscriber[17].ethg$o[0].channel delay 2.65e-06s
attr mutable ""
attr unit s
par PubSubNetwork.subscriber[17].ethg$o[0].channel datarate 1e+08bps
attr mutable ""
attr unit bps
par PubSubNetwork.subscriber[17].ethg$o[0].channel ber 0
attr mutable ""
par PubSubNetwork.subscriber[17].ethg$o[0].channel per 0
attr mutable ""
par PubSubNetwork.subscriber[17].ethg$o[0].channel length 10m
attr unit m
par PubSubNetwork.switch.ethg$o[19].channel typename "\"inet.node.ethernet.Eth100M\""
par PubSubNetwork.switch.ethg$o[19].channel disabled false
attr mutable ""
par PubSubNetwork.switch.ethg$o[19].channel delay 2.65e-06s
attr mutable ""
attr unit s
par PubSubNetwork.switch.ethg$o[19].channel datarate 1e+08bps
attr mutable ""
attr unit bps
par PubSubNetwork.switch.ethg$o[19].channel ber 0
attr mutable ""
par PubSubNetwork.switch.ethg$o[19].channel per 0
attr mutable ""
par PubSubNetwork.switch.ethg$o[19].channel length 10m
attr unit m
par PubSubNetwork.subscriber[18].ethg$o[0].channel typename "\"inet.node.ethernet.Eth100M\""
par PubSubNetwork.subscriber[18].ethg$o[0].channel disabled false
attr mutable ""
par PubSubNetwork.subscriber[18].ethg$o[0].channel delay 2.65e-06s
attr mutable ""
attr unit s
par PubSubNetwork.subscriber[18].ethg$o[0].channel datarate 1e+08bps
attr mutable ""
attr unit bps
par PubSubNetwork.subscriber[18].ethg$o[0].channel ber 0
attr mutable ""
par PubSubNetwork.subscriber[18].ethg$o[0].channel per 0
attr mutable ""
par PubSubNetwork.subscriber[18].ethg$o[0].channel length 10m
attr unit m
par PubSubNetwork.switch.ethg$o[20].channel typename "\"inet.node.ethernet.Eth100M\""
par PubSubNetwork.switch.ethg$o[20].channel disabled false
attr mutable ""
par PubSubNetwork.switch.ethg$o[20].channel delay 2.65e-06s
attr mutable ""
attr unit s
par PubSubNetwork.switch.ethg$o[20].channel datarate 1e+08bps
attr mutable ""
attr unit bps
par PubSubNetwork.switch.ethg$o[20].channel ber 0
attr mutable ""
par PubSubNetwork.switch.ethg$o[20].channel per 0
attr mutable ""
par PubSubNetwork.switch.ethg$o[20].channel length 10m
attr unit m
par PubSubNetwork.subscriber[19].ethg$o[0].channel typename "\"inet.node.ethernet.Eth100M\""
par PubSubNetwork.subscriber[19].ethg$o[0].channel disabled false
attr mutable ""
par PubSubNetwork.subscriber[19].ethg$o[0].channel delay 2.65e-06s
attr mutable ""
attr unit s
par PubSubNetwork.subscriber[19].ethg$o[0].channel datarate 1e+08bps
attr mutable ""
attr unit bps
par PubSubNetwork.subscriber[19].ethg$o[0].channel ber 0
attr mutable ""
par PubSubNetwork.subscriber[19].ethg$o[0].channel per 0
attr mutable ""
par PubSubNetwork.subscriber[19].ethg$o[0].channel length 10m
attr unit m
par PubSubNetwork.switch.ethg$o[21].channel typename "\"inet.node.ethernet.Eth100M\""
par PubSubNetwork.switch.ethg$o[21].channel disabled false
attr mutable ""
par PubSubNetwork.switch.ethg$o[21].channel delay 2.65e-06s
attr mutable ""
attr unit s
par PubSubNetwork.switch.ethg$o[21].channel datarate 1e+08bps
attr mutable ""
attr unit bps
par PubSubNetwork.switch.ethg$o[21].channel ber 0
attr mutable ""
par PubSubNetwork.switch.ethg$o[21].channel per 0
attr mutable ""
par PubSubNetwork.switch.ethg$o[21].channel length 10m
attr unit m
par PubSubNetwork.subscriber[20].ethg$o[0].channel typename "\"inet.node.ethernet.Eth100M\""
par PubSubNetwork.subscriber[20].ethg$o[0].channel disabled false
attr mutable ""
par PubSubNetwork.subscriber[20].ethg$o[0].channel delay 2.65e-06s
attr mutable ""
attr unit s
par PubSubNetwork.subscriber[20].ethg$o[0].channel datarate 1e+08bps
attr mutable ""
attr unit bps
par PubSubNetwork.subscriber[20].ethg$o[0].channel ber 0
attr mutable ""
par PubSubNetwork.subscriber[20].ethg$o[0].channel per 0
attr mutable ""
par PubSubNetwork.subscriber[20].ethg$o[0].channel length 10m
attr unit m
par PubSubNetwork.switch.ethg$o[22].channel typename "\"inet.node.ethernet.Eth100M\""
par PubSubNetwork.switch.ethg$o[22].channel disabled false
attr mutable ""
par PubSubNetwork.switch.ethg$o[22].channel delay 2.65e-06s
attr mutable ""
attr unit s
par PubSubNetwork.switch.ethg$o[22].channel datarate 1e+08bps
attr mutable ""
attr unit bps
par PubSubNetwork.switch.ethg$o[22].channel ber 0
attr mutable ""
par PubSubNetwork.switch.ethg$o[22].channel per 0
attr mutable ""
par PubSubNetwork.switch.ethg$o[22].channel length 10m
attr unit m
par PubSubNetwork.subscriber[21].ethg$o[0].channel typename "\"inet.node.ethernet.Eth100M\""
par PubSubNetwork.subscriber[21].ethg$o[0].channel disabled false
attr mutable ""
par PubSubNetwork.subscriber[21].ethg$o[0].channel delay 2.65e-06s
attr mutable ""
attr unit s
par PubSubNetwork.subscriber[21].ethg$o[0].channel datarate 1e+08bps
attr mutable ""
attr unit bps
par PubSubNetwork.subscriber[21].ethg$o[0].channel ber 0
attr mutable ""
par PubSubNetwork.subscriber[21].ethg$o[0].channel per 0
attr mutable ""
par PubSubNetwork.subscriber[21].ethg$o[0].channel length 10m
attr unit m
par PubSubNetwork.switch.ethg$o[23].channel typename "\"inet.node.ethernet.Eth100M\""
par PubSubNetwork.switch.ethg$o[23].channel disabled false
attr mutable ""
par PubSubNetwork.switch.ethg$o[23].channel delay 2.65e-06s
attr mutable ""
attr unit s
par PubSubNetwork.switch.ethg$o[23].channel datarate 1e+08bps
attr mutable ""
attr unit bps
par PubSubNetwork.switch.ethg$o[23].channel ber 0
attr mutable ""
par PubSubNetwork.switch.ethg$o[23].channel per 0
attr mutable ""
par PubSubNetwork.switch.ethg$o[23].channel length 10m
attr unit m
par PubSubNetwork.subscriber[22].ethg$o[0].channel typename "\"inet.node.ethernet.Eth100M\""
par PubSubNetwork.subscriber[22].ethg$o[0].channel disabled false
attr mutable ""
par PubSubNetwork.subscriber[22].ethg$o[0].channel delay 2.65e-06s
attr mutable ""
attr unit s
par PubSubNetwork.subscriber[22].ethg$o[0].channel datarate 1e+08bps
attr mutable ""
attr unit bps
par PubSubNetwork.subscriber[22].ethg$o[0].channel ber 0
attr mutable ""
par PubSubNetwork.subscriber[22].ethg$o[0].channel per 0
attr mutable ""
par PubSubNetwork.subscriber[22].ethg$o[0].channel length 10m
attr unit m
par PubSubNetwork.switch.ethg$o[24].channel typename "\"inet.node.ethernet.Eth100M\""
par PubSubNetwork.switch.ethg$o[24].channel disabled false
attr mutable ""
par PubSubNetwork.switch.ethg$o[24].channel delay 2.65e-06s
attr mutable ""
attr unit s
par PubSubNetwork.switch.ethg$o[24].channel datarate 1e+08bps
attr mutable ""
attr unit bps
par PubSubNetwork.switch.ethg$o[24].channel ber 0
attr mutable ""
par PubSubNetwork.switch.ethg$o[24].channel per 0
attr mutable ""
par PubSubNetwork.switch.ethg$o[24].channel length 10m
attr unit m
par PubSubNetwork.subscriber[23].ethg$o[0].channel typename "\"inet.node.ethernet.Eth100M\""
par PubSubNetwork.subscriber[23].ethg$o[0].channel disabled false
attr mutable ""
par PubSubNetwork.subscriber[23].ethg$o[0].channel delay 2.65e-06s
attr mutable ""
attr unit s
par PubSubNetwork.subscriber[23].ethg$o[0].channel datarate 1e+08bps
attr mutable ""
attr unit bps
par PubSubNetwork.subscriber[23].ethg$o[0].channel ber 0
attr mutable ""
par PubSubNetwork.subscriber[23].ethg$o[0].channel per 0
attr mutable ""
par PubSubNetwork.subscriber[23].ethg$o[0].channel length 10m
attr unit m
par PubSubNetwork.switch.ethg$o[25].channel typename "\"inet.node.ethernet.Eth100M\""
par PubSubNetwork.switch.ethg$o[25].channel disabled false
attr mutable ""
par PubSubNetwork.switch.ethg$o[25].channel delay 2.65e-06s
attr mutable ""
attr unit s
par PubSubNetwork.switch.ethg$o[25].channel datarate 1e+08bps
attr mutable ""
attr unit bps
par PubSubNetwork.switch.ethg$o[25].channel ber 0
attr mutable ""
par PubSubNetwork.switch.ethg$o[25].channel per 0
attr mutable ""
par PubSubNetwork.switch.ethg$o[25].channel length 10m
attr unit m
par PubSubNetwork.subscriber[24].ethg$o[0].channel typename "\"inet.node.ethernet.Eth100M\""
par PubSubNetwork.subscriber[24].ethg$o[0].channel disabled false
attr mutable ""
par PubSubNetwork.subscriber[24].ethg$o[0].channel delay 2.65e-06s
attr mutable ""
attr unit s
par PubSubNetwork.subscriber[24].ethg$o[0].channel datarate 1e+08bps
attr mutable ""
attr unit bps
par PubSubNetwork.subscriber[24].ethg$o[0].channel ber 0
attr mutable ""
par PubSubNetwork.subscriber[24].ethg$o[0].channel per 0
attr mutable ""
par PubSubNetwork.subscriber[24].ethg$o[0].channel length 10m
attr unit m
par PubSubNetwork.switch.ethg$o[26].channel typename "\"inet.node.ethernet.Eth100M\""
par PubSubNetwork.switch.ethg$o[26].channel disabled false
attr mutable ""
par PubSubNetwork.switch.ethg$o[26].channel delay 2.65e-06s
attr mutable ""
attr unit s
par PubSubNetwork.switch.ethg$o[26].channel datarate 1e+08bps
attr mutable ""
attr unit bps
par PubSubNetwork.switch.ethg$o[26].channel ber 0
attr mutable ""
par PubSubNetwork.switch.ethg$o[26].channel per 0
attr mutable ""
par PubSubNetwork.switch.ethg$o[26].channel length 10m
attr unit m
par PubSubNetwork.subscriber[25].ethg$o[0].channel typename "\"inet.node.ethernet.Eth100M\""
par PubSubNetwork.subscriber[25].ethg$o[0].channel disabled false
attr mutable ""
par PubSubNetwork.subscriber[25].ethg$o[0].channel delay 2.65e-06s
attr mutable ""
attr unit s
par PubSubNetwork.subscriber[25].ethg$o[0].channel datarate 1e+08bps
attr mutable ""
attr unit bps
par PubSubNetwork.subscriber[25].ethg$o[0].channel ber 0
attr mutable ""
par PubSubNetwork.subscriber[25].ethg$o[0].channel per 0
attr mutable ""
par PubSubNetwork.subscriber[25].ethg$o[0].channel length 10m
attr unit m
par PubSubNetwork.switch.ethg$o[27].channel typename "\"inet.node.ethernet.Eth100M\""
par PubSubNetwork.switch.ethg$o[27].channel disabled false
attr mutable ""
par PubSubNetwork.switch.ethg$o[27].channel delay 2.65e-06s
attr mutable ""
attr unit s
par PubSubNetwork.switch.ethg$o[27].channel datarate 1e+08bps
attr mutable ""
attr unit bps
par PubSubNetwork.switch.ethg$o[27].channel ber 0
attr mutable ""
par PubSubNetwork.switch.ethg$o[27].channel per 0
attr mutable ""
par PubSubNetwork.switch.ethg$o[27].channel length 10m
attr unit m
par PubSubNetwork.subscriber[26].ethg$o[0].channel typename "\"inet.node.ethernet.Eth100M\""
par PubSubNetwork.subscriber[26].ethg$o[0].channel disabled false
attr mutable ""
par PubSubNetwork.subscriber[26].ethg$o[0].channel delay 2.65e-06s
attr mutable ""
attr unit s
par PubSubNetwork.subscriber[26].ethg$o[0].channel datarate 1e+08bps
attr mutable ""
attr unit bps
par PubSubNetwork.subscriber[26].ethg$o[0].channel ber 0
attr mutable ""
par PubSubNetwork.subscriber[26].ethg$o[0].channel per 0
attr mutable ""
par PubSubNetwork.subscriber[26].ethg$o[0].channel length 10m
attr unit m
par PubSubNetwork.switch.ethg$o[28].channel typename "\"inet.node.ethernet.Eth100M\""
par PubSubNetwork.switch.ethg$o[28].channel disabled false
attr mutable ""
par PubSubNetwork.switch.ethg$o[28].channel delay 2.65e-06s
attr mutable ""
attr unit s
par PubSubNetwork.switch.ethg$o[28].channel datarate 1e+08bps
attr mutable ""
attr unit bps
par PubSubNetwork.switch.ethg$o[28].channel ber 0
attr mutable ""
par PubSubNetwork.switch.ethg$o[28].channel per 0
attr mutable ""
par PubSubNetwork.switch.ethg$o[28].channel length 10m
attr unit m
par PubSubNetwork.subscriber[27].ethg$o[0].channel typename "\"inet.node.ethernet.Eth100M\""
par PubSubNetwork.subscriber[27].ethg$o[0].channel disabled false
attr mutable ""
par PubSubNetwork.subscriber[27].ethg$o[0].channel delay 2.65e-06s
attr mutable ""
attr unit s
par PubSubNetwork.subscriber[27].ethg$o[0].channel datarate 1e+08bps
attr mutable ""
attr unit bps
par PubSubNetwork.subscriber[27].ethg$o[0].channel ber 0
attr mutable ""
par PubSubNetwork.subscriber[27].ethg$o[0].channel per 0
attr mutable ""
par PubSubNetwork.subscriber[27].ethg$o[0].channel length 10m
attr unit m
par PubSubNetwork.switch.ethg$o[29].channel typename "\"inet.node.ethernet.Eth100M\""
par PubSubNetwork.switch.ethg$o[29].channel disabled false
attr mutable ""
par PubSubNetwork.switch.ethg$o[29].channel delay 2.65e-06s
attr mutable ""
attr unit s
par PubSubNetwork.switch.ethg$o[29].channel datarate 1e+08bps
attr mutable ""
attr unit bps
par PubSubNetwork.switch.ethg$o[29].channel ber 0
attr mutable ""
par PubSubNetwork.switch.ethg$o[29].channel per 0
attr mutable ""
par PubSubNetwork.switch.ethg$o[29].channel length 10m
attr unit m
par PubSubNetwork.subscriber[28].ethg$o[0].channel typename "\"inet.node.ethernet.Eth100M\""
par PubSubNetwork.subscriber[28].ethg$o[0].channel disabled false
attr mutable ""
par PubSubNetwork.subscriber[28].ethg$o[0].channel delay 2.65e-06s
attr mutable ""
attr unit s
par PubSubNetwork.subscriber[28].ethg$o[0].channel datarate 1e+08bps
attr mutable ""
attr unit bps
par PubSubNetwork.subscriber[28].ethg$o[0].channel ber 0
attr mutable ""
par PubSubNetwork.subscriber[28].ethg$o[0].channel per 0
attr mutable ""
par PubSubNetwork.subscriber[28].ethg$o[0].channel length 10m
attr unit m
par PubSubNetwork.switch.ethg$o[30].channel typename "\"inet.node.ethernet.Eth100M\""
par PubSubNetwork.switch.ethg$o[30].channel disabled false
attr mutable ""
par PubSubNetwork.switch.ethg$o[30].channel delay 2.65e-06s
attr mutable ""
attr unit s
par PubSubNetwork.switch.ethg$o[30].channel datarate 1e+08bps
attr mutable ""
attr unit bps
par PubSubNetwork.switch.ethg$o[30].channel ber 0
attr mutable ""
par PubSubNetwork.switch.ethg$o[30].channel per 0
attr mutable ""
par PubSubNetwork.switch.ethg$o[30].channel length 10m
attr unit m
par PubSubNetwork.subscriber[29].ethg$o[0].channel typename "\"inet.node.ethernet.Eth100M\""
par PubSubNetwork.subscriber[29].ethg$o[0].channel disabled false
attr mutable ""
par PubSubNetwork.subscriber[29].ethg$o[0].channel delay 2.65e-06s
attr mutable ""
attr unit s
par PubSubNetwork.subscriber[29].ethg$o[0].channel datarate 1e+08bps
attr mutable ""
attr unit bps
par PubSubNetwork.subscriber[29].ethg$o[0].channel ber 0
attr mutable ""
par PubSubNetwork.subscriber[29].ethg$o[0].channel per 0
attr mutable ""
par PubSubNetwork.subscriber[29].ethg$o[0].channel length 10m
attr unit m
par PubSubNetwork.switch.ethg$o[31].channel typename "\"inet.node.ethernet.Eth100M\""
par PubSubNetwork.switch.ethg$o[31].channel disabled false
attr mutable ""
par PubSubNetwork.switch.ethg$o[31].channel delay 2.65e-06s
attr mutable ""
attr unit s
par PubSubNetwork.switch.ethg$o[31].channel datarate 1e+08bps
attr mutable ""
attr unit bps
par PubSubNetwork.switch.ethg$o[31].channel ber 0
attr mutable ""
par PubSubNetwork.switch.ethg$o[31].channel per 0
attr mutable ""
par PubSubNetwork.switch.ethg$o[31].channel length 10m
attr unit m
par PubSubNetwork.subscriber[30].ethg$o[0].channel typename "\"inet.node.ethernet.Eth100M\""
par PubSubNetwork.subscriber[30].ethg$o[0].channel disabled false
attr mutable ""
par PubSubNetwork.subscriber[30].ethg$o[0].channel delay 2.65e-06s
attr mutable ""
attr unit s
par PubSubNetwork.subscriber[30].ethg$o[0].channel datarate 1e+08bps
attr mutable ""
attr unit bps
par PubSubNetwork.subscriber[30].ethg$o[0].channel ber 0
attr mutable ""
par PubSubNetwork.subscriber[30].ethg$o[0].channel per 0
attr mutable ""
par PubSubNetwork.subscriber[30].ethg$o[0].channel length 10m
attr unit m
par PubSubNetwork.switch.ethg$o[32].channel typename "\"inet.node.ethernet.Eth100M\""
par PubSubNetwork.switch.ethg$o[32].channel disabled false
attr mutable ""
par PubSubNetwork.switch.ethg$o[32].channel delay 2.65e-06s
attr mutable ""
attr unit s
par PubSubNetwork.switch.ethg$o[32].channel datarate 1e+08bps
attr mutable ""
attr unit bps
par PubSubNetwork.switch.ethg$o[32].channel ber 0
attr mutable ""
par PubSubNetwork.switch.ethg$o[32].channel per 0
attr mutable ""
par PubSubNetwork.switch.ethg$o[32].channel length 10m
attr unit m
par PubSubNetwork.subscriber[31].ethg$o[0].channel typename "\"inet.node.ethernet.Eth100M\""
par PubSubNetwork.subscriber[31].ethg$o[0].channel disabled false
attr mutable ""
par PubSubNetwork.subscriber[31].ethg$o[0].channel delay 2.65e-06s
attr mutable ""
attr unit s
par PubSubNetwork.subscriber[31].ethg$o[0].channel datarate 1e+08bps
attr mutable ""
attr unit bps
par PubSubNetwork.subscriber[31].ethg$o[0].channel ber 0
attr mutable ""
par PubSubNetwork.subscriber[31].ethg$o[0].channel per 0
attr mutable ""
par PubSubNetwork.subscriber[31].ethg$o[0].channel length 10m
attr unit m
par PubSubNetwork.switch.ethg$o[33].channel typename "\"inet.node.ethernet.Eth100M\""
par PubSubNetwork.switch.ethg$o[33].channel disabled false
attr mutable ""
par PubSubNetwork.switch.ethg$o[33].channel delay 2.65e-06s
attr mutable ""
attr unit s
par PubSubNetwork.switch.ethg$o[33].channel datarate 1e+08bps
attr mutable ""
attr unit bps
par PubSubNetwork.switch.ethg$o[33].channel ber 0
attr mutable ""
par PubSubNetwork.switch.ethg$o[33].channel per 0
attr mutable ""
par PubSubNetwork.switch.ethg$o[33].channel length 10m
attr unit m
par PubSubNetwork.subscriber[32].ethg$o[0].channel typename "\"inet.node.ethernet.Eth100M\""
par PubSubNetwork.subscriber[32].ethg$o[0].channel disabled false
attr mutable ""
par PubSubNetwork.subscriber[32].ethg$o[0].channel delay 2.65e-06s
attr mutable ""
attr unit s
par PubSubNetwork.subscriber[32].ethg$o[0].channel datarate 1e+08bps
attr mutable ""
attr unit bps
par PubSubNetwork.subscriber[32].ethg$o[0].channel ber 0
attr mutable ""
par PubSubNetwork.subscriber[32].ethg$o[0].channel per 0
attr mutable ""
par PubSubNetwork.subscriber[32].ethg$o[0].channel length 10m
attr unit m
par PubSubNetwork.switch.ethg$o[34].channel typename "\"inet.node.ethernet.Eth100M\""
par PubSubNetwork.switch.ethg$o[34].channel disabled false
attr mutable ""
par PubSubNetwork.switch.ethg$o[34].channel delay 2.65e-06s
attr mutable ""
attr unit s
par PubSubNetwork.switch.ethg$o[34].channel datarate 1e+08bps
attr mutable ""
attr unit bps
par PubSubNetwork.switch.ethg$o[34].channel ber 0
attr mutable ""
par PubSubNetwork.switch.ethg$o[34].channel per 0
attr mutable ""
par PubSubNetwork.switch.ethg$o[34].channel length 10m
attr unit m
par PubSubNetwork.subscriber[33].ethg$o[0].channel typename "\"inet.node.ethernet.Eth100M\""
par PubSubNetwork.subscriber[33].ethg$o[0].channel disabled false
attr mutable ""
par PubSubNetwork.subscriber[33].ethg$o[0].channel delay 2.65e-06s
attr mutable ""
attr unit s
par PubSubNetwork.subscriber[33].ethg$o[0].channel datarate 1e+08bps
attr mutable ""
attr unit bps
par PubSubNetwork.subscriber[33].ethg$o[0].channel ber 0
attr mutable ""
par PubSubNetwork.subscriber[33].ethg$o[0].channel per 0
attr mutable ""
par PubSubNetwork.subscriber[33].ethg$o[0].channel length 10m
attr unit m
par PubSubNetwork.switch.ethg$o[35].channel typename "\"inet.node.ethernet.Eth100M\""
par PubSubNetwork.switch.ethg$o[35].channel disabled false
attr mutable ""
par PubSubNetwork.switch.ethg$o[35].channel delay 2.65e-06s
attr mutable ""
attr unit s
par PubSubNetwork.switch.ethg$o[35].channel datarate 1e+08bps
attr mutable ""
attr unit bps
par PubSubNetwork.switch.ethg$o[35].channel ber 0
attr mutable ""
par PubSubNetwork.switch.ethg$o[35].channel per 0
attr mutable ""
par PubSubNetwork.switch.ethg$o[35].channel length 10m
attr unit m
par PubSubNetwork.subscriber[34].ethg$o[0].channel typename "\"inet.node.ethernet.Eth100M\""
par PubSubNetwork.subscriber[34].ethg$o[0].channel disabled false
attr mutable ""
par PubSubNetwork.subscriber[34].ethg$o[0].channel delay 2.65e-06s
attr mutable ""
attr unit s
par PubSubNetwork.subscriber[34].ethg$o[0].channel datarate 1e+08bps
attr mutable ""
attr unit bps
par PubSubNetwork.subscriber[34].ethg$o[0].channel ber 0
attr mutable ""
par PubSubNetwork.subscriber[34].ethg$o[0].channel per 0
attr mutable ""
par PubSubNetwork.subscriber[34].ethg$o[0].channel length 10m
attr unit m
par PubSubNetwork.switch.ethg$o[36].channel typename "\"inet.node.ethernet.Eth100M\""
par PubSubNetwork.switch.ethg$o[36].channel disabled false
attr mutable ""
par PubSubNetwork.switch.ethg$o[36].channel delay 2.65e-06s
attr mutable ""
attr unit s
par PubSubNetwork.switch.ethg$o[36].channel datarate 1e+08bps
attr mutable ""
attr unit bps
par PubSubNetwork.switch.ethg$o[36].channel ber 0
attr mutable ""
par PubSubNetwork.switch.ethg$o[36].channel per 0
attr mutable ""
par PubSubNetwork.switch.ethg$o[36].channel length 10m
attr unit m
par PubSubNetwork.subscriber[35].ethg$o[0].channel typename "\"inet.node.ethernet.Eth100M\""
par PubSubNetwork.subscriber[35].ethg$o[0].channel disabled false
attr mutable ""
par PubSubNetwork.subscriber[35].ethg$o[0].channel delay 2.65e-06s
attr mutable ""
attr unit s
par PubSubNetwork.subscriber[35].ethg$o[0].channel datarate 1e+08bps
attr mutable ""
attr unit bps
par PubSubNetwork.subscriber[35].ethg$o[0].channel ber 0
attr mutable ""
par PubSubNetwork.subscriber[35].ethg$o[0].channel per 0
attr mutable ""
par PubSubNetwork.subscriber[35].ethg$o[0].channel length 10m
attr unit m
par PubSubNetwork.switch.ethg$o[37].channel typename "\"inet.node.ethernet.Eth100M\""
par PubSubNetwork.switch.ethg$o[37].channel disabled false
attr mutable ""
par PubSubNetwork.switch.ethg$o[37].channel delay 2.65e-06s
attr mutable ""
attr unit s
par PubSubNetwork.switch.ethg$o[37].channel datarate 1e+08bps
attr mutable ""
attr unit bps
par PubSubNetwork.switch.ethg$o[37].channel ber 0
attr mutable ""
par PubSubNetwork.switch.ethg$o[37].channel per 0
attr mutable ""
par PubSubNetwork.switch.ethg$o[37].channel length 10m
attr unit m
par PubSubNetwork.subscriber[36].ethg$o[0].channel typename "\"inet.node.ethernet.Eth100M\""
par PubSubNetwork.subscriber[36].ethg$o[0].channel disabled false
attr mutable ""
par PubSubNetwork.subscriber[36].ethg$o[0].channel delay 2.65e-06s
attr mutable ""
attr unit s
par PubSubNetwork.subscriber[36].ethg$o[0].channel datarate 1e+08bps
attr mutable ""
attr unit bps
par PubSubNetwork.subscriber[36].ethg$o[0].channel ber 0
attr mutable ""
par PubSubNetwork.subscriber[36].ethg$o[0].channel per 0
attr mutable ""
par PubSubNetwork.subscriber[36].ethg$o[0].channel length 10m
attr unit m
par PubSubNetwork.switch.ethg$o[38].channel typename "\"inet.node.ethernet.Eth100M\""
par PubSubNetwork.switch.ethg$o[38].channel disabled false
attr mutable ""
par PubSubNetwork.switch.ethg$o[38].channel delay 2.65e-06s
attr mutable ""
attr unit s
par PubSubNetwork.switch.ethg$o[38].channel datarate 1e+08bps
attr mutable ""
attr unit bps
par PubSubNetwork.switch.ethg$o[38].channel ber 0
attr mutable ""
par PubSubNetwork.switch.ethg$o[38].channel per 0
attr mutable ""
par PubSubNetwork.switch.ethg$o[38].channel length 10m
attr unit m
par PubSubNetwork.subscriber[37].ethg$o[0].channel typename "\"inet.node.ethernet.Eth100M\""
par PubSubNetwork.subscriber[37].ethg$o[0].channel disabled false
attr mutable ""
par PubSubNetwork.subscriber[37].ethg$o[0].channel delay 2.65e-06s
attr mutable ""
attr unit s
par PubSubNetwork.subscriber[37].ethg$o[0].channel datarate 1e+08bps
attr mutable ""
attr unit bps
par PubSubNetwork.subscriber[37].ethg$o[0].channel ber 0
attr mutable ""
par PubSubNetwork.subscriber[37].ethg$o[0].channel per 0
attr mutable ""
par PubSubNetwork.subscriber[37].ethg$o[0].channel length 10m
attr unit m
par PubSubNetwork.switch.ethg$o[39].channel typename "\"inet.node.ethernet.Eth100M\""
par PubSubNetwork.switch.ethg$o[39].channel disabled false
attr mutable ""
par PubSubNetwork.switch.ethg$o[39].channel delay 2.65e-06s
attr mutable ""
attr unit s
par PubSubNetwork.switch.ethg$o[39].channel datarate 1e+08bps
attr mutable ""
attr unit bps
par PubSubNetwork.switch.ethg$o[39].channel ber 0
attr mutable ""
par PubSubNetwork.switch.ethg$o[39].channel per 0
attr mutable ""
par PubSubNetwork.switch.ethg$o[39].channel length 10m
attr unit m
par PubSubNetwork.subscriber[38].ethg$o[0].channel typename "\"inet.node.ethernet.Eth100M\""
par PubSubNetwork.subscriber[38].ethg$o[0].channel disabled false
attr mutable ""
par PubSubNetwork.subscriber[38].ethg$o[0].channel delay 2.65e-06s
attr mutable ""
attr unit s
par PubSubNetwork.subscriber[38].ethg$o[0].channel datarate 1e+08bps
attr mutable ""
attr unit bps
par PubSubNetwork.subscriber[38].ethg$o[0].channel ber 0
attr mutable ""
par PubSubNetwork.subscriber[38].ethg$o[0].channel per 0
attr mutable ""
par PubSubNetwork.subscriber[38].ethg$o[0].channel length 10m
attr unit m
par PubSubNetwork.switch.ethg$o[40].channel typename "\"inet.node.ethernet.Eth100M\""
par PubSubNetwork.switch.ethg$o[40].channel disabled false
attr mutable ""
par PubSubNetwork.switch.ethg$o[40].channel delay 2.65e-06s
attr mutable ""
attr unit s
par PubSubNetwork.switch.ethg$o[40].channel datarate 1e+08bps
attr mutable ""
attr unit bps
par PubSubNetwork.switch.ethg$o[40].channel ber 0
attr mutable ""
par PubSubNetwork.switch.ethg$o[40].channel per 0
attr mutable ""
par PubSubNetwork.switch.ethg$o[40].channel length 10m
attr unit m
par PubSubNetwork.subscriber[39].ethg$o[0].channel typename "\"inet.node.ethernet.Eth100M\""
par PubSubNetwork.subscriber[39].ethg$o[0].channel disabled false
attr mutable ""
par PubSubNetwork.subscriber[39].ethg$o[0].channel delay 2.65e-06s
attr mutable ""
attr unit s
par PubSubNetwork.subscriber[39].ethg$o[0].channel datarate 1e+08bps
attr mutable ""
attr unit bps
par PubSubNetwork.subscriber[39].ethg$o[0].channel ber 0
attr mutable ""
par PubSubNetwork.subscriber[39].ethg$o[0].channel per 0
attr mutable ""
par PubSubNetwork.subscriber[39].ethg$o[0].channel length 10m
attr unit m
par PubSubNetwork.switch.ethg$o[41].channel typename "\"inet.node.ethernet.Eth100M\""
par PubSubNetwork.switch.ethg$o[41].channel disabled false
attr mutable ""
par PubSubNetwork.switch.ethg$o[41].channel delay 2.65e-06s
attr mutable ""
attr unit s
par PubSubNetwork.switch.ethg$o[41].channel datarate 1e+08bps
attr mutable ""
attr unit bps
par PubSubNetwork.switch.ethg$o[41].channel ber 0
attr mutable ""
par PubSubNetwork.switch.ethg$o[41].channel per 0
attr mutable ""
par PubSubNetwork.switch.ethg$o[41].channel length 10m
attr unit m
par PubSubNetwork.subscriber[40].ethg$o[0].channel typename "\"inet.node.ethernet.Eth100M\""
par PubSubNetwork.subscriber[40].ethg$o[0].channel disabled false
attr mutable ""
par PubSubNetwork.subscriber[40].ethg$o[0].channel delay 2.65e-06s
attr mutable ""
attr unit s
par PubSubNetwork.subscriber[40].ethg$o[0].channel datarate 1e+08bps
attr mutable ""
attr unit bps
par PubSubNetwork.subscriber[40].ethg$o[0].channel ber 0
attr mutable ""
par PubSubNetwork.subscriber[40].ethg$o[0].channel per 0
attr mutable ""
par PubSubNetwork.subscriber[40].ethg$o[0].channel length 10m
attr unit m
par PubSubNetwork.switch.ethg$o[42].channel typename "\"inet.node.ethernet.Eth100M\""
par PubSubNetwork.switch.ethg$o[42].channel disabled false
attr mutable ""
par PubSubNetwork.switch.ethg$o[42].channel delay 2.65e-06s
attr mutable ""
attr unit s
par PubSubNetwork.switch.ethg$o[42].channel datarate 1e+08bps
attr mutable ""
attr unit bps
par PubSubNetwork.switch.ethg$o[42].channel ber 0
attr mutable ""
par PubSubNetwork.switch.ethg$o[42].channel per 0
attr mutable ""
par PubSubNetwork.switch.ethg$o[42].channel length 10m
attr unit m
par PubSubNetwork.subscriber[41].ethg$o[0].channel typename "\"inet.node.ethernet.Eth100M\""
par PubSubNetwork.subscriber[41].ethg$o[0].channel disabled false
attr mutable ""
par PubSubNetwork.subscriber[41].ethg$o[0].channel delay 2.65e-06s
attr mutable ""
attr unit s
par PubSubNetwork.subscriber[41].ethg$o[0].channel datarate 1e+08bps
attr mutable ""
attr unit bps
par PubSubNetwork.subscriber[41].ethg$o[0].channel ber 0
attr mutable ""
par PubSubNetwork.subscriber[41].ethg$o[0].channel per 0
attr mutable ""
par PubSubNetwork.subscriber[41].ethg$o[0].channel length 10m
attr unit m
par PubSubNetwork.switch.ethg$o[43].channel typename "\"inet.node.ethernet.Eth100M\""
par PubSubNetwork.switch.ethg$o[43].channel disabled false
attr mutable ""
par PubSubNetwork.switch.ethg$o[43].channel delay 2.65e-06s
attr mutable ""
attr unit s
par PubSubNetwork.switch.ethg$o[43].channel datarate 1e+08bps
attr mutable ""
attr unit bps
par PubSubNetwork.switch.ethg$o[43].channel ber 0
attr mutable ""
par PubSubNetwork.switch.ethg$o[43].channel per 0
attr mutable ""
par PubSubNetwork.switch.ethg$o[43].channel length 10m
attr unit m
par PubSubNetwork.subscriber[42].ethg$o[0].channel typename "\"inet.node.ethernet.Eth100M\""
par PubSubNetwork.subscriber[42].ethg$o[0].channel disabled false
attr mutable ""
par PubSubNetwork.subscriber[42].ethg$o[0].channel delay 2.65e-06s
attr mutable ""
attr unit s
par PubSubNetwork.subscriber[42].ethg$o[0].channel datarate 1e+08bps
attr mutable ""
attr unit bps
par PubSubNetwork.subscriber[42].ethg$o[0].channel ber 0
attr mutable ""
par PubSubNetwork.subscriber[42].ethg$o[0].channel per 0
attr mutable ""
par PubSubNetwork.subscriber[42].ethg$o[0].channel length 10m
attr unit m
par PubSubNetwork.switch.ethg$o[44].channel typename "\"inet.node.ethernet.Eth100M\""
par PubSubNetwork.switch.ethg$o[44].channel disabled false
attr mutable ""
par PubSubNetwork.switch.ethg$o[44].channel delay 2.65e-06s
attr mutable ""
attr unit s
par PubSubNetwork.switch.ethg$o[44].channel datarate 1e+08bps
attr mutable ""
attr unit bps
par PubSubNetwork.switch.ethg$o[44].channel ber 0
attr mutable ""
par PubSubNetwork.switch.ethg$o[44].channel per 0
attr mutable ""
par PubSubNetwork.switch.ethg$o[44].channel length 10m
attr unit m
par PubSubNetwork.subscriber[43].ethg$o[0].channel typename "\"inet.node.ethernet.Eth100M\""
par PubSubNetwork.subscriber[43].ethg$o[0].channel disabled false
attr mutable ""
par PubSubNetwork.subscriber[43].ethg$o[0].channel delay 2.65e-06s
attr mutable ""
attr unit s
par PubSubNetwork.subscriber[43].ethg$o[0].channel datarate 1e+08bps
attr mutable ""
attr unit bps
par PubSubNetwork.subscriber[43].ethg$o[0].channel ber 0
attr mutable ""
par PubSubNetwork.subscriber[43].ethg$o[0].channel per 0
attr mutable ""
par PubSubNetwork.subscriber[43].ethg$o[0].channel length 10m
attr unit m
par PubSubNetwork.switch.ethg$o[45].channel typename "\"inet.node.ethernet.Eth100M\""
par PubSubNetwork.switch.ethg$o[45].channel disabled false
attr mutable ""
par PubSubNetwork.switch.ethg$o[45].channel delay 2.65e-06s
attr mutable ""
attr unit s
par PubSubNetwork.switch.ethg$o[45].channel datarate 1e+08bps
attr mutable ""
attr unit bps
par PubSubNetwork.switch.ethg$o[45].channel ber 0
attr mutable ""
par PubSubNetwork.switch.ethg$o[45].channel per 0
attr mutable ""
par PubSubNetwork.switch.ethg$o[45].channel length 10m
attr unit m
par PubSubNetwork.subscriber[44].ethg$o[0].channel typename "\"inet.node.ethernet.Eth100M\""
par PubSubNetwork.subscriber[44].ethg$o[0].channel disabled false
attr mutable ""
par PubSubNetwork.subscriber[44].ethg$o[0].channel delay 2.65e-06s
attr mutable ""
attr unit s
par PubSubNetwork.subscriber[44].ethg$o[0].channel datarate 1e+08bps
attr mutable ""
attr unit bps
par PubSubNetwork.subscriber[44].ethg$o[0].channel ber 0
attr mutable ""
par PubSubNetwork.subscriber[44].ethg$o[0].channel per 0
attr mutable ""
par PubSubNetwork.subscriber[44].ethg$o[0].channel length 10m
attr unit m
par PubSubNetwork.switch.ethg$o[46].channel typename "\"inet.node.ethernet.Eth100M\""
par PubSubNetwork.switch.ethg$o[46].channel disabled false
attr mutable ""
par PubSubNetwork.switch.ethg$o[46].channel delay 2.65e-06s
attr mutable ""
attr unit s
par PubSubNetwork.switch.ethg$o[46].channel datarate 1e+08bps
attr mutable ""
attr unit bps
par PubSubNetwork.switch.ethg$o[46].channel ber 0
attr mutable ""
par PubSubNetwork.switch.ethg$o[46].channel per 0
attr mutable ""
par PubSubNetwork.switch.ethg$o[46].channel length 10m
attr unit m
par PubSubNetwork.subscriber[45].ethg$o[0].channel typename "\"inet.node.ethernet.Eth100M\""
par PubSubNetwork.subscriber[45].ethg$o[0].channel disabled false
attr mutable ""
par PubSubNetwork.subscriber[45].ethg$o[0].channel delay 2.65e-06s
attr mutable ""
attr unit s
par PubSubNetwork.subscriber[45].ethg$o[0].channel datarate 1e+08bps
attr mutable ""
attr unit bps
par PubSubNetwork.subscriber[45].ethg$o[0].channel ber 0
attr mutable ""
par PubSubNetwork.subscriber[45].ethg$o[0].channel per 0
attr mutable ""
par PubSubNetwork.subscriber[45].ethg$o[0].channel length 10m
attr unit m
par PubSubNetwork.switch.ethg$o[47].channel typename "\"inet.node.ethernet.Eth100M\""
par PubSubNetwork.switch.ethg$o[47].channel disabled false
attr mutable ""
par PubSubNetwork.switch.ethg$o[47].channel delay 2.65e-06s
attr mutable ""
attr unit s
par PubSubNetwork.switch.ethg$o[47].channel datarate 1e+08bps
attr mutable ""
attr unit bps
par PubSubNetwork.switch.ethg$o[47].channel ber 0
attr mutable ""
par PubSubNetwork.switch.ethg$o[47].channel per 0
attr mutable ""
par PubSubNetwork.switch.ethg$o[47].channel length 10m
attr unit m
par PubSubNetwork.subscriber[46].ethg$o[0].channel typename "\"inet.node.ethernet.Eth100M\""
par PubSubNetwork.subscriber[46].ethg$o[0].channel disabled false
attr mutable ""
par PubSubNetwork.subscriber[46].ethg$o[0].channel delay 2.65e-06s
attr mutable ""
attr unit s
par PubSubNetwork.subscriber[46].ethg$o[0].channel datarate 1e+08bps
attr mutable ""
attr unit bps
par PubSubNetwork.subscriber[46].ethg$o[0].channel ber 0
attr mutable ""
par PubSubNetwork.subscriber[46].ethg$o[0].channel per 0
attr mutable ""
par PubSubNetwork.subscriber[46].ethg$o[0].channel length 10m
attr unit m
par PubSubNetwork.switch.ethg$o[48].channel typename "\"inet.node.ethernet.Eth100M\""
par PubSubNetwork.switch.ethg$o[48].channel disabled false
attr mutable ""
par PubSubNetwork.switch.ethg$o[48].channel delay 2.65e-06s
attr mutable ""
attr unit s
par PubSubNetwork.switch.ethg$o[48].channel datarate 1e+08bps
attr mutable ""
attr unit bps
par PubSubNetwork.switch.ethg$o[48].channel ber 0
attr mutable ""
par PubSubNetwork.switch.ethg$o[48].channel per 0
attr mutable ""
par PubSubNetwork.switch.ethg$o[48].channel length 10m
attr unit m
par PubSubNetwork.subscriber[47].ethg$o[0].channel typename "\"inet.node.ethernet.Eth100M\""
par PubSubNetwork.subscriber[47].ethg$o[0].channel disabled false
attr mutable ""
par PubSubNetwork.subscriber[47].ethg$o[0].channel delay 2.65e-06s
attr mutable ""
attr unit s
par PubSubNetwork.subscriber[47].ethg$o[0].channel datarate 1e+08bps
attr mutable ""
attr unit bps
par PubSubNetwork.subscriber[47].ethg$o[0].channel ber 0
attr mutable ""
par PubSubNetwork.subscriber[47].ethg$o[0].channel per 0
attr mutable ""
par PubSubNetwork.subscriber[47].ethg$o[0].channel length 10m
attr unit m
par PubSubNetwork.switch.ethg$o[49].channel typename "\"inet.node.ethernet.Eth100M\""
par PubSubNetwork.switch.ethg$o[49].channel disabled false
attr mutable ""
par PubSubNetwork.switch.ethg$o[49].channel delay 2.65e-06s
attr mutable ""
attr unit s
par PubSubNetwork.switch.ethg$o[49].channel datarate 1e+08bps
attr mutable ""
attr unit bps
par PubSubNetwork.switch.ethg$o[49].channel ber 0
attr mutable ""
par PubSubNetwork.switch.ethg$o[49].channel per 0
attr mutable ""
par PubSubNetwork.switch.ethg$o[49].channel length 10m
attr unit m
par PubSubNetwork.subscriber[48].ethg$o[0].channel typename "\"inet.node.ethernet.Eth100M\""
par PubSubNetwork.subscriber[48].ethg$o[0].channel disabled false
attr mutable ""
par PubSubNetwork.subscriber[48].ethg$o[0].channel delay 2.65e-06s
attr mutable ""
attr unit s
par PubSubNetwork.subscriber[48].ethg$o[0].channel datarate 1e+08bps
attr mutable ""
attr unit bps
par PubSubNetwork.subscriber[48].ethg$o[0].channel ber 0
attr mutable ""
par PubSubNetwork.subscriber[48].ethg$o[0].channel per 0
attr mutable ""
par PubSubNetwork.subscriber[48].ethg$o[0].channel length 10m
attr unit m
par PubSubNetwork.switch.ethg$o[50].channel typename "\"inet.node.ethernet.Eth100M\""
par PubSubNetwork.switch.ethg$o[50].channel disabled false
attr mutable ""
par PubSubNetwork.switch.ethg$o[50].channel delay 2.65e-06s
attr mutable ""
attr unit s
par PubSubNetwork.switch.ethg$o[50].channel datarate 1e+08bps
attr mutable ""
attr unit bps
par PubSubNetwork.switch.ethg$o[50].channel ber 0
attr mutable ""
par PubSubNetwork.switch.ethg$o[50].channel per 0
attr mutable ""
par PubSubNetwork.switch.ethg$o[50].channel length 10m
attr unit m
par PubSubNetwork.subscriber[49].ethg$o[0].channel typename "\"inet.node.ethernet.Eth100M\""
par PubSubNetwork.subscriber[49].ethg$o[0].channel disabled false
attr mutable ""
par PubSubNetwork.subscriber[49].ethg$o[0].channel delay 2.65e-06s
attr mutable ""
attr unit s
par PubSubNetwork.subscriber[49].ethg$o[0].channel datarate 1e+08bps
attr mutable ""
attr unit bps
par PubSubNetwork.subscriber[49].ethg$o[0].channel ber 0
attr mutable ""
par PubSubNetwork.subscriber[49].ethg$o[0].channel per 0
attr mutable ""
par PubSubNetwork.subscriber[49].ethg$o[0].channel length 10m
attr unit m
par PubSubNetwork.publisher[0].ethg$i[0].channel typename "\"ned.IdealChannel\""
par PubSubNetwork.publisher[0].eth[0].phys$o.channel typename "\"ned.IdealChannel\""
par PubSubNetwork.publisher[0].interfaceTable typename "\"inet.networklayer.common.InterfaceTable\""
par PubSubNetwork.publisher[0].interfaceTable displayAddresses false
par PubSubNetwork.publisher[0].cb typename "\"inet.common.MessageDispatcher\""
par PubSubNetwork.publisher[0].cb displayStringTextFormat "\"processed %p pk (%l)\""
par PubSubNetwork.publisher[0].cb forwardServiceRegistration true
par PubSubNetwork.publisher[0].cb forwardProtocolRegistration true
par PubSubNetwork.publisher[0].bl typename "\"inet.common.MessageDispatcher\""
par PubSubNetwork.publisher[0].bl displayStringTextFormat "\"processed %p pk (%l)\""
par PubSubNetwork.publisher[0].bl forwardServiceRegistration true
par PubSubNetwork.publisher[0].bl forwardProtocolRegistration true
par PubSubNetwork.publisher[0].ethernet typename "\"inet.linklayer.ethernet.basic.EthernetEncapsulation\""
par PubSubNetwork.publisher[0].ethernet registerProtocol true
par PubSubNetwork.publisher[0].ethernet interfaceTableModule "\"PubSubNetwork.publisher[0].interfaceTable\""
par PubSubNetwork.publisher[0].ethernet fcsMode "\"declared\""
attr enum declared,computed
par PubSubNetwork.publisher[0].ethernet stopOperationExtraTime -1s
attr unit s
par PubSubNetwork.publisher[0].ethernet stopOperationTimeout 2s
attr unit s
scalar PubSubNetwork.publisher[0].ethernet pauseSent:count 0
attr recordingmode count
attr title "pause sent, count"
scalar PubSubNetwork.publisher[0].ethernet pauseSent:sum 0
attr recordingmode sum
attr title "pause sent, sum"
scalar PubSubNetwork.publisher[0].ethernet decapPk:count 50
attr interpolationmode none
attr recordingmode count
attr source decapPk
attr title "packets decapsulated, count"
scalar PubSubNetwork.publisher[0].ethernet decapPk:sum(packetBytes) 2300
attr interpolationmode none
attr recordingmode sum(packetBytes)
attr source decapPk
attr title "packets decapsulated, sum(packetBytes)"
scalar PubSubNetwork.publisher[0].ethernet encapPk:count 18
attr interpolationmode none
attr recordingmode count
attr source encapPk
attr title "packets encapsulated, count"
scalar PubSubNetwork.publisher[0].ethernet encapPk:sum(packetBytes) 13932
attr interpolationmode none
attr recordingmode sum(packetBytes)
attr source encapPk
attr title "packets encapsulated, sum(packetBytes)"
par PubSubNetwork.publisher[0].li typename "\"inet.common.MessageDispatcher\""
par PubSubNetwork.publisher[0].li displayStringTextFormat "\"processed %p pk (%l)\""
par PubSubNetwork.publisher[0].li forwardServiceRegistration true
par PubSubNetwork.publisher[0].li forwardProtocolRegistration true
par PubSubNetwork.publisher[0].lo[0].upperLayerIn.channel typename "\"ned.IdealChannel\""
par PubSubNetwork.publisher[0].lo[0].lo.upperLayerOut.channel typename "\"ned.IdealChannel\""
par PubSubNetwork.publisher[0].lo[0].lo typename "\"inet.linklayer.loopback.Loopback\""
par PubSubNetwork.publisher[0].lo[0].lo interfaceTableModule "\"PubSubNetwork.publisher[0].interfaceTable\""
par PubSubNetwork.publisher[0].lo[0].lo mtu 4470B
attr unit B
scalar PubSubNetwork.publisher[0].lo[0].lo rcvdPkFromHl:count 9
attr interpolationmode none
attr recordingmode count
attr source packetReceivedFromUpper
attr title "packets received from higher layer, count"
scalar PubSubNetwork.publisher[0].lo[0].lo rcvdPkFromHl:sum(packetBytes) 13752
attr interpolationmode none
attr recordingmode sum(packetBytes)
attr source packetReceivedFromUpper
attr title "packets received from higher layer, sum(packetBytes)"
scalar PubSubNetwork.publisher[0].lo[0].lo passedUpPk:count 9
attr interpolationmode none
attr recordingmode count
attr source packetSentToUpper
attr title "packets passed to higher layer, count"
scalar PubSubNetwork.publisher[0].lo[0].lo passedUpPk:sum(packetBytes) 13752
attr interpolationmode none
attr recordingmode sum(packetBytes)
attr source packetSentToUpper
attr title "packets passed to higher layer, sum(packetBytes)"
par PubSubNetwork.publisher[0].lo[0] typename "\"inet.linklayer.loopback.LoopbackInterface\""
par PubSubNetwork.publisher[0].lo[0] displayStringTextFormat "\"%a (%i)\\n%m\""
par PubSubNetwork.publisher[0].lo[0] recordPcap false
par PubSubNetwork.publisher[0].lo[0] numPcapRecorders 0
par PubSubNetwork.publisher[0].lo[0] interfaceTableModule "\"PubSubNetwork.publisher[0].interfaceTable\""
scalar PubSubNetwork.publisher[0].lo[0] packetDropInterfaceDown:count 0
attr interpolationmode none
attr recordingmode count
attr source packetDropReasonIsInterfaceDown(packetDropped)
attr title "packet drops: interface down, count"
scalar PubSubNetwork.publisher[0].lo[0] packetDropInterfaceDown:sum(packetBytes) 0
attr interpolationmode none
attr recordingmode sum(packetBytes)
attr source packetDropReasonIsInterfaceDown(packetDropped)
attr title "packet drops: interface down, sum(packetBytes)"
scalar PubSubNetwork.publisher[0].lo[0] packetDropNoCarrier:count 0
attr interpolationmode none
attr recordingmode count
attr source packetDropReasonIsNoCarrier(packetDropped)
attr title "packet drops: no carrier, count"
scalar PubSubNetwork.publisher[0].lo[0] packetDropNoCarrier:sum(packetBytes) 0
attr interpolationmode none
attr recordingmode sum(packetBytes)
attr source packetDropReasonIsNoCarrier(packetDropped)
attr title "packet drops: no carrier, sum(packetBytes)"
par PubSubNetwork.publisher[0].eth[0].mac.phys$o.channel typename "\"ned.IdealChannel\""
par PubSubNetwork.publisher[0].eth[0].phys$i.channel typename "\"ned.IdealChannel\""
par PubSubNetwork.publisher[0].eth[0].upperLayerIn.channel typename "\"ned.IdealChannel\""
par PubSubNetwork.publisher[0].eth[0].mac.upperLayerOut.channel typename "\"ned.IdealChannel\""
par PubSubNetwork.publisher[0].eth[0].queue typename "\"inet.linklayer.ethernet.common.EthernetQueue\""
par PubSubNetwork.publisher[0].eth[0].queue displayStringTextFormat "\"contains %p pk (%l) pushed %u\\npulled %o removed %r dropped %d\""
par PubSubNetwork.publisher[0].eth[0].queue packetCapacity 1000
par PubSubNetwork.publisher[0].eth[0].queue dataCapacity -1b
attr unit b
par PubSubNetwork.publisher[0].eth[0].queue dropperClass "\"inet::queueing::PacketAtCollectionEndDropper\""
par PubSubNetwork.publisher[0].eth[0].queue comparatorClass "\"inet::EthernetFrameTypeComparator\""
par PubSubNetwork.publisher[0].eth[0].queue bufferModule "\"\""
scalar PubSubNetwork.publisher[0].eth[0].queue queueLength:last 0
attr autoWarmupFilter false
attr interpolationmode sample-hold
attr recordingmode last
attr source "warmup(atomic(constant0(packetPushEnded) + count(packetPushStarted) - count(packetPulled) - count(packetRemoved) - count(packetDropped)))"
attr title "queue length, last"
attr unit pk
scalar PubSubNetwork.publisher[0].eth[0].queue queueLength:max 1
attr autoWarmupFilter false
attr interpolationmode sample-hold
attr recordingmode max
attr source "warmup(atomic(constant0(packetPushEnded) + count(packetPushStarted) - count(packetPulled) - count(packetRemoved) - count(packetDropped)))"
attr title "queue length, max"
attr unit pk
scalar PubSubNetwork.publisher[0].eth[0].queue queueLength:timeavg 0.00110736
attr autoWarmupFilter false
attr interpolationmode sample-hold
attr recordingmode timeavg
attr source "warmup(atomic(constant0(packetPushEnded) + count(packetPushStarted) - count(packetPulled) - count(packetRemoved) - count(packetDropped)))"
attr title "queue length, timeavg"
attr unit pk
scalar PubSubNetwork.publisher[0].eth[0].queue queueBitLength:last 0
attr autoWarmupFilter false
attr interpolationmode sample-hold
attr recordingmode last
attr source "warmup(atomic(constant0(packetPushEnded) + sum(packetLength(packetPushStarted)) - sum(packetLength(packetPulled)) - sum(packetLength(packetRemoved)) - sum(packetLength(packetDropped))))"
attr title "queue bit length, last"
attr unit b
scalar PubSubNetwork.publisher[0].eth[0].queue queueBitLength:max 528
attr autoWarmupFilter false
attr interpolationmode sample-hold
attr recordingmode max
attr source "warmup(atomic(constant0(packetPushEnded) + sum(packetLength(packetPushStarted)) - sum(packetLength(packetPulled)) - sum(packetLength(packetRemoved)) - sum(packetLength(packetDropped))))"
attr title "queue bit length, max"
attr unit b
scalar PubSubNetwork.publisher[0].eth[0].queue queueBitLength:timeavg 0.58468608
attr autoWarmupFilter false
attr interpolationmode sample-hold
attr recordingmode timeavg
attr source "warmup(atomic(constant0(packetPushEnded) + sum(packetLength(packetPushStarted)) - sum(packetLength(packetPulled)) - sum(packetLength(packetRemoved)) - sum(packetLength(packetDropped))))"
attr title "queue bit length, timeavg"
attr unit b
statistic PubSubNetwork.publisher[0].eth[0].queue queueingTime:histogram
field count 18
field mean 6.152e-05
field stddev 6.3303557747803e-05
field min 0
field max 0.00012304
field sum 0.00110736
field sqrsum 1.362495744e-07
attr interpolationmode none
attr recordingmode histogram
attr source queueingTime(packetPulled)
attr title "queueing times"
attr unit s
bin	-inf	0
bin	0	9
bin	2e-06	0
bin	4e-06	0
bin	6e-06	0
bin	8e-06	0
bin	1e-05	0
bin	1.2e-05	0
bin	1.4e-05	0
bin	1.6e-05	0
bin	1.8e-05	0
bin	2e-05	0
bin	2.2e-05	0
bin	2.4e-05	0
bin	2.6e-05	0
bin	2.8e-05	0
bin	3e-05	0
bin	3.2e-05	0
bin	3.4e-05	0
bin	3.6e-05	0
bin	3.8e-05	0
bin	4e-05	0
bin	4.2e-05	0
bin	4.4e-05	0
bin	4.6e-05	0
bin	4.8e-05	0
bin	5e-05	0
bin	5.2e-05	0
bin	5.4e-05	0
bin	5.6e-05	0
bin	5.8e-05	0
bin	6e-05	0
bin	6.2e-05	0
bin	6.4e-05	0
bin	6.6e-05	0
bin	6.8e-05	0
bin	7e-05	0
bin	7.2e-05	0
bin	7.4e-05	0
bin	7.6e-05	0
bin	7.8e-05	0
bin	8e-05	0
bin	8.2e-05	0
bin	8.4e-05	0
bin	8.6e-05	0
bin	8.8e-05	0
bin	9e-05	0
bin	9.2e-05	0
bin	9.4e-05	0
bin	9.6e-05	0
bin	9.8e-05	0
bin	0.0001	0
bin	0.000102	0
bin	0.000104	0
bin	0.000106	0
bin	0.000108	0
bin	0.00011	0
bin	0.000112	0
bin	0.000114	0
bin	0.000116	0
bin	0.000118	0
bin	0.00012	0
bin	0.000122	9
bin	0.000124	0
bin	0.000126	0
bin	0.000128	0
bin	0.00013	0
bin	0.000132	0
bin	0.000134	0
bin	0.000136	0
bin	0.000138	0
bin	0.00014	0
bin	0.000142	0
bin	0.000144	0
bin	0.000146	0
bin	0.000148	0
bin	0.00015	0
bin	0.000152	0
bin	0.000154	0
scalar PubSubNetwork.publisher[0].eth[0].queue outgoingPackets:count 18
attr recordingmode count
attr source packetPulled
attr title "outgoing packets, count"
attr unit pk
scalar PubSubNetwork.publisher[0].eth[0].queue outgoingPacketLengths:sum 114048
attr interpolationmode none
attr recordingmode sum
attr source packetLength(packetPulled)
attr title "outgoing packet lengths, sum"
attr unit b
statistic PubSubNetwork.publisher[0].eth[0].queue outgoingPacketLengths:histogram
field count 18
field mean 6336
field stddev 5976.3826950461
field min 528
field max 12144
field sum 114048
field sqrsum 1329799680
attr interpolationmode none
attr recordingmode histogram
attr source packetLength(packetPulled)
attr title "outgoing packet lengths"
attr unit b
bin	-inf	0
bin	0	0
bin	200	0
bin	400	9
bin	600	0
bin	800	0
bin	1000	0
bin	1200	0
bin	1400	0
bin	1600	0
bin	1800	0
bin	2000	0
bin	2200	0
bin	2400	0
bin	2600	0
bin	2800	0
bin	3000	0
bin	3200	0
bin	3400	0
bin	3600	0
bin	3800	0
bin	4000	0
bin	4200	0
bin	4400	0
bin	4600	0
bin	4800	0
bin	5000	0
bin	5200	0
bin	5400	0
bin	5600	0
bin	5800	0
bin	6000	0
bin	6200	0
bin	6400	0
bin	6600	0
bin	6800	0
bin	7000	0
bin	7200	0
bin	7400	0
bin	7600	0
bin	7800	0
bin	8000	0
bin	8200	0
bin	8400	0
bin	8600	0
bin	8800	0
bin	9000	0
bin	9200	0
bin	9400	0
bin	9600	0
bin	9800	0
bin	10000	0
bin	10200	0
bin	10400	0
bin	10600	0
bin	10800	0
bin	11000	0
bin	11200	0
bin	11400	0
bin	11600	0
bin	11800	0
bin	12000	9
bin	12200	0
bin	12400	0
bin	12600	0
bin	12800	0
bin	13000	0
bin	13200	0
bin	13400	0
bin	13600	0
bin	13800	0
bin	14000	0
bin	14200	0
bin	14400	0
bin	14600	0
bin	14800	0
bin	15000	0
bin	15200	0
statistic PubSubNetwork.publisher[0].eth[0].queue flowQueueingTime:histogram
field count 0
field mean -nan
field stddev nan
field min nan
field max nan
field sum 0
field sqrsum 0
attr interpolationmode none
attr recordingmode histogram
attr source queueingTime(demuxFlow(packetPulled))
attr title "flow queueing times"
attr unit s
bin	-inf	0
bin	0	0
bin	1	0
scalar PubSubNetwork.publisher[0].eth[0].queue incomingPackets:count 18
attr recordingmode count
attr source packetPushStarted
attr title "incoming packets, count"
attr unit pk
scalar PubSubNetwork.publisher[0].eth[0].queue incomingPacketLengths:sum 114048
attr interpolationmode none
attr recordingmode sum
attr source packetLength(packetPushStarted)
attr title "incoming packet lengths, sum"
attr unit b
statistic PubSubNetwork.publisher[0].eth[0].queue incomingPacketLengths:histogram
field count 18
field mean 6336
field stddev 5976.3826950461
field min 528
field max 12144
field sum 114048
field sqrsum 1329799680
attr interpolationmode none
attr recordingmode histogram
attr source packetLength(packetPushStarted)
attr title "incoming packet lengths"
attr unit b
bin	-inf	0
bin	0	0
bin	200	0
bin	400	9
bin	600	0
bin	800	0
bin	1000	0
bin	1200	0
bin	1400	0
bin	1600	0
bin	1800	0
bin	2000	0
bin	2200	0
bin	2400	0
bin	2600	0
bin	2800	0
bin	3000	0
bin	3200	0
bin	3400	0
bin	3600	0
bin	3800	0
bin	4000	0
bin	4200	0
bin	4400	0
bin	4600	0
bin	4800	0
bin	5000	0
bin	5200	0
bin	5400	0
bin	5600	0
bin	5800	0
bin	6000	0
bin	6200	0
bin	6400	0
bin	6600	0
bin	6800	0
bin	7000	0
bin	7200	0
bin	7400	0
bin	7600	0
bin	7800	0
bin	8000	0
bin	8200	0
bin	8400	0
bin	8600	0
bin	8800	0
bin	9000	0
bin	9200	0
bin	9400	0
bin	9600	0
bin	9800	0
bin	10000	0
bin	10200	0
bin	10400	0
bin	10600	0
bin	10800	0
bin	11000	0
bin	11200	0
bin	11400	0
bin	11600	0
bin	11800	0
bin	12000	9
bin	12200	0
bin	12400	0
bin	12600	0
bin	12800	0
bin	13000	0
bin	13200	0
bin	13400	0
bin	13600	0
bin	13800	0
bin	14000	0
bin	14200	0
bin	14400	0
bin	14600	0
bin	14800	0
bin	15000	0
bin	15200	0
scalar PubSubNetwork.publisher[0].eth[0].queue droppedPacketsQueueOverflow:count 0
attr interpolationmode none
attr recordingmode count
attr source packetDropReasonIsQueueOverflow(packetDropped)
attr title "dropped packets: queue overflow, count"
attr unit pk
scalar PubSubNetwork.publisher[0].eth[0].queue droppedPacketLengthsQueueOverflow:sum 0
attr interpolationmode none
attr recordingmode sum
attr source packetLength(packetDropReasonIsQueueOverflow(packetDropped))
attr title "dropped packet lengths: queue overflow, sum"
attr unit b
par PubSubNetwork.publisher[0].eth[0].mac typename "\"inet.linklayer.ethernet.basic.EthernetMac\""
par PubSubNetwork.publisher[0].eth[0].mac interfaceTableModule "\"PubSubNetwork.publisher[0].interfaceTable\""
par PubSubNetwork.publisher[0].eth[0].mac displayStringTextFormat "\"rate: %b\\nsent: %s, rcvd: %r\\nqueue: %q, drop: %d\""
par PubSubNetwork.publisher[0].eth[0].mac sendRawBytes false
par PubSubNetwork.publisher[0].eth[0].mac promiscuous false
par PubSubNetwork.publisher[0].eth[0].mac duplexMode true
par PubSubNetwork.publisher[0].eth[0].mac mtu 1500B
attr unit B
par PubSubNetwork.publisher[0].eth[0].mac fcsMode "\"declared\""
attr enum declared,computed
par PubSubNetwork.publisher[0].eth[0].mac stopOperationExtraTime -1s
attr unit s
par PubSubNetwork.publisher[0].eth[0].mac stopOperationTimeout 2s
attr unit s
scalar PubSubNetwork.publisher[0].eth[0].mac "simulated time" 1
scalar PubSubNetwork.publisher[0].eth[0].mac full-duplex 1
scalar PubSubNetwork.publisher[0].eth[0].mac "frames/sec sent" 18
scalar PubSubNetwork.publisher[0].eth[0].mac "frames/sec rcvd" 50
scalar PubSubNetwork.publisher[0].eth[0].mac "bits/sec sent" 114048
scalar PubSubNetwork.publisher[0].eth[0].mac "bits/sec rcvd" 25600
scalar PubSubNetwork.publisher[0].eth[0].mac "rx channel idle (%)" 99.9712
scalar PubSubNetwork.publisher[0].eth[0].mac "rx channel utilization (%)" 0.0288
scalar PubSubNetwork.publisher[0].eth[0].mac rxPausePkUnits:count 0
attr interpolationmode none
attr recordingmode count
attr title "pause units received, count"
scalar PubSubNetwork.publisher[0].eth[0].mac rxPausePkUnits:sum 0
attr interpolationmode none
attr recordingmode sum
attr title "pause units received, sum"
scalar PubSubNetwork.publisher[0].eth[0].mac txPausePkUnits:count 0
attr interpolationmode none
attr recordingmode count
attr title "pause units sent, count"
scalar PubSubNetwork.publisher[0].eth[0].mac txPausePkUnits:sum 0
attr interpolationmode none
attr recordingmode sum
attr title "pause units sent, sum"
scalar PubSubNetwork.publisher[0].eth[0].mac rxPkOk:count 50
attr interpolationmode none
attr recordingmode count
attr source rxPkOk
attr title "packets received OK, count"
scalar PubSubNetwork.publisher[0].eth[0].mac rxPkOk:sum(packetBytes) 3200
attr interpolationmode none
attr recordingmode sum(packetBytes)
attr source rxPkOk
attr title "packets received OK, sum(packetBytes)"
scalar PubSubNetwork.publisher[0].eth[0].mac txPk:count 18
attr interpolationmode none
attr recordingmode count
attr source packetSentToLower
attr title "packets transmitted, count"
scalar PubSubNetwork.publisher[0].eth[0].mac txPk:sum(packetBytes) 14256
attr interpolationmode none
attr recordingmode sum(packetBytes)
attr source packetSentToLower
attr title "packets transmitted, sum(packetBytes)"
scalar PubSubNetwork.publisher[0].eth[0].mac packetReceivedFromUpper:count 18
attr interpolationmode none
attr recordingmode count
attr source packetReceivedFromUpper
attr title "packet bytes from higher layer, count"
scalar PubSubNetwork.publisher[0].eth[0].mac packetReceivedFromUpper:sum(packetBytes) 14256
attr interpolationmode none
attr recordingmode sum(packetBytes)
attr source packetReceivedFromUpper
attr title "packet bytes from higher layer, sum(packetBytes)"
scalar PubSubNetwork.publisher[0].eth[0].mac passedUpPk:count 50
attr interpolationmode none
attr recordingmode count
attr source packetSentToUpper
attr title "packets passed to higher layer, count"
scalar PubSubNetwork.publisher[0].eth[0].mac passedUpPk:sum(packetBytes) 3200
attr interpolationmode none
attr recordingmode sum(packetBytes)
attr source packetSentToUpper
attr title "packets passed to higher layer, sum(packetBytes)"
scalar PubSubNetwork.publisher[0].eth[0].mac packetDropIncorrectlyReceived:count 0
attr interpolationmode none
attr recordingmode count
attr source packetDropReasonIsIncorrectlyReceived(packetDropped)
attr title "packet drop: incorrectly received, count"
scalar PubSubNetwork.publisher[0].eth[0].mac packetDropIncorrectlyReceived:sum(packetBytes) 0
attr interpolationmode none
attr recordingmode sum(packetBytes)
attr source packetDropReasonIsIncorrectlyReceived(packetDropped)
attr title "packet drop: incorrectly received, sum(packetBytes)"
scalar PubSubNetwork.publisher[0].eth[0].mac packetDropInterfaceDown:count 0
attr interpolationmode none
attr recordingmode count
attr source packetDropReasonIsInterfaceDown(packetDropped)
attr title "packet drop: interface down, count"
scalar PubSubNetwork.publisher[0].eth[0].mac packetDropInterfaceDown:sum(packetBytes) 0
attr interpolationmode none
attr recordingmode sum(packetBytes)
attr source packetDropReasonIsInterfaceDown(packetDropped)
attr title "packet drop: interface down, sum(packetBytes)"
scalar PubSubNetwork.publisher[0].eth[0].mac packetDropNotAddressedToUs:count 0
attr interpolationmode none
attr recordingmode count
attr source packetDropReasonIsNotAddressedToUs(packetDropped)
attr title "packet drop: not addressed to us, count"
scalar PubSubNetwork.publisher[0].eth[0].mac packetDropNotAddressedToUs:sum(packetBytes) 0
attr interpolationmode none
attr recordingmode sum(packetBytes)
attr source packetDropReasonIsNotAddressedToUs(packetDropped)
attr title "packet drop: not addressed to us, sum(packetBytes)"
par PubSubNetwork.publisher[0].eth[0] typename "\"inet.linklayer.ethernet.EthernetInterface\""
par PubSubNetwork.publisher[0].eth[0] displayStringTextFormat "\"%a (%i)\\n%m\""
par PubSubNetwork.publisher[0].eth[0] recordPcap false
par PubSubNetwork.publisher[0].eth[0] numPcapRecorders 0
par PubSubNetwork.publisher[0].eth[0] interfaceTableModule "\"PubSubNetwork.publisher[0].interfaceTable\""
par PubSubNetwork.publisher[0].eth[0] protocol "\"ethernetmac\""
par PubSubNetwork.publisher[0].eth[0] address "\"0A-AA-00-00-00-01\""
attr mutable ""
par PubSubNetwork.publisher[0].eth[0] duplexMode true
par PubSubNetwork.publisher[0].eth[0] csmacdSupport false
par PubSubNetwork.publisher[0].eth[0] bitrate 0bps
attr unit bps
par PubSubNetwork.publisher[0].eth[0] fcsMode "\"declared\""
attr enum declared,computed
scalar PubSubNetwork.publisher[0].eth[0] packetDropInterfaceDown:count 0
attr interpolationmode none
attr recordingmode count
[...]
attr interpolationmode none
attr recordingmode count
attr source packetSentToUpper
attr title "packets passed to higher layer, count"
scalar PubSubNetwork.switch.eth[49].mac passedUpPk:sum(packetBytes) 64
attr interpolationmode none
attr recordingmode sum(packetBytes)
attr source packetSentToUpper
attr title "packets passed to higher layer, sum(packetBytes)"
scalar PubSubNetwork.switch.eth[49].mac packetDropIncorrectlyReceived:count 0
attr interpolationmode none
attr recordingmode count
attr source packetDropReasonIsIncorrectlyReceived(packetDropped)
attr title "packet drop: incorrectly received, count"
scalar PubSubNetwork.switch.eth[49].mac packetDropIncorrectlyReceived:sum(packetBytes) 0
attr interpolationmode none
attr recordingmode sum(packetBytes)
attr source packetDropReasonIsIncorrectlyReceived(packetDropped)
attr title "packet drop: incorrectly received, sum(packetBytes)"
scalar PubSubNetwork.switch.eth[49].mac packetDropInterfaceDown:count 0
attr interpolationmode none
attr recordingmode count
attr source packetDropReasonIsInterfaceDown(packetDropped)
attr title "packet drop: interface down, count"
scalar PubSubNetwork.switch.eth[49].mac packetDropInterfaceDown:sum(packetBytes) 0
attr interpolationmode none
attr recordingmode sum(packetBytes)
attr source packetDropReasonIsInterfaceDown(packetDropped)
attr title "packet drop: interface down, sum(packetBytes)"
scalar PubSubNetwork.switch.eth[49].mac packetDropNotAddressedToUs:count 0
attr interpolationmode none
attr recordingmode count
attr source packetDropReasonIsNotAddressedToUs(packetDropped)
attr title "packet drop: not addressed to us, count"
scalar PubSubNetwork.switch.eth[49].mac packetDropNotAddressedToUs:sum(packetBytes) 0
attr interpolationmode none
attr recordingmode sum(packetBytes)
attr source packetDropReasonIsNotAddressedToUs(packetDropped)
attr title "packet drop: not addressed to us, sum(packetBytes)"
par PubSubNetwork.switch.eth[49] typename "\"inet.linklayer.ethernet.EthernetInterface\""
par PubSubNetwork.switch.eth[49] displayStringTextFormat "\"%a (%i)\\n%m\""
par PubSubNetwork.switch.eth[49] recordPcap false
par PubSubNetwork.switch.eth[49] numPcapRecorders 0
par PubSubNetwork.switch.eth[49] interfaceTableModule "\"PubSubNetwork.switch.interfaceTable\""
par PubSubNetwork.switch.eth[49] protocol "\"ethernetmac\""
par PubSubNetwork.switch.eth[49] address "\"0A-AA-00-00-00-65\""
attr mutable ""
par PubSubNetwork.switch.eth[49] duplexMode true
par PubSubNetwork.switch.eth[49] csmacdSupport false
par PubSubNetwork.switch.eth[49] bitrate 0bps
attr unit bps
par PubSubNetwork.switch.eth[49] fcsMode "\"declared\""
attr enum declared,computed
scalar PubSubNetwork.switch.eth[49] packetDropInterfaceDown:count 0
attr interpolationmode none
attr recordingmode count
attr source packetDropReasonIsInterfaceDown(packetDropped)
attr title "packet drops: interface down, count"
scalar PubSubNetwork.switch.eth[49] packetDropInterfaceDown:sum(packetBytes) 0
attr interpolationmode none
attr recordingmode sum(packetBytes)
attr source packetDropReasonIsInterfaceDown(packetDropped)
attr title "packet drops: interface down, sum(packetBytes)"
scalar PubSubNetwork.switch.eth[49] packetDropNoCarrier:count 0
attr interpolationmode none
attr recordingmode count
attr source packetDropReasonIsNoCarrier(packetDropped)
attr title "packet drops: no carrier, count"
scalar PubSubNetwork.switch.eth[49] packetDropNoCarrier:sum(packetBytes) 0
attr interpolationmode none
attr recordingmode sum(packetBytes)
attr source packetDropReasonIsNoCarrier(packetDropped)
attr title "packet drops: no carrier, sum(packetBytes)"
par PubSubNetwork.switch.eth[50].mac.phys$o.channel typename "\"ned.IdealChannel\""
par PubSubNetwork.switch.eth[50].phys$i.channel typename "\"ned.IdealChannel\""
par PubSubNetwork.switch.eth[50].upperLayerIn.channel typename "\"ned.IdealChannel\""
par PubSubNetwork.switch.eth[50].mac.upperLayerOut.channel typename "\"ned.IdealChannel\""
par PubSubNetwork.switch.eth[50].queue typename "\"inet.linklayer.ethernet.common.EthernetQueue\""
par PubSubNetwork.switch.eth[50].queue displayStringTextFormat "\"contains %p pk (%l) pushed %u\\npulled %o removed %r dropped %d\""
par PubSubNetwork.switch.eth[50].queue packetCapacity 1000
par PubSubNetwork.switch.eth[50].queue dataCapacity -1b
attr unit b
par PubSubNetwork.switch.eth[50].queue dropperClass "\"inet::queueing::PacketAtCollectionEndDropper\""
par PubSubNetwork.switch.eth[50].queue comparatorClass "\"inet::EthernetFrameTypeComparator\""
par PubSubNetwork.switch.eth[50].queue bufferModule "\"\""
scalar PubSubNetwork.switch.eth[50].queue queueLength:last 0
attr autoWarmupFilter false
attr interpolationmode sample-hold
attr recordingmode last
attr source "warmup(atomic(constant0(packetPushEnded) + count(packetPushStarted) - count(packetPulled) - count(packetRemoved) - count(packetDropped)))"
attr title "queue length, last"
attr unit pk
scalar PubSubNetwork.switch.eth[50].queue queueLength:max 48
attr autoWarmupFilter false
attr interpolationmode sample-hold
attr recordingmode max
attr source "warmup(atomic(constant0(packetPushEnded) + count(packetPushStarted) - count(packetPulled) - count(packetRemoved) - count(packetDropped)))"
attr title "queue length, max"
attr unit pk
scalar PubSubNetwork.switch.eth[50].queue queueLength:timeavg 0.00894816
attr autoWarmupFilter false
attr interpolationmode sample-hold
attr recordingmode timeavg
attr source "warmup(atomic(constant0(packetPushEnded) + count(packetPushStarted) - count(packetPulled) - count(packetRemoved) - count(packetDropped)))"
attr title "queue length, timeavg"
attr unit pk
scalar PubSubNetwork.switch.eth[50].queue queueBitLength:last 0
attr autoWarmupFilter false
attr interpolationmode sample-hold
attr recordingmode last
attr source "warmup(atomic(constant0(packetPushEnded) + sum(packetLength(packetPushStarted)) - sum(packetLength(packetPulled)) - sum(packetLength(packetRemoved)) - sum(packetLength(packetDropped))))"
attr title "queue bit length, last"
attr unit b
scalar PubSubNetwork.switch.eth[50].queue queueBitLength:max 24576
attr autoWarmupFilter false
attr interpolationmode sample-hold
attr recordingmode max
attr source "warmup(atomic(constant0(packetPushEnded) + sum(packetLength(packetPushStarted)) - sum(packetLength(packetPulled)) - sum(packetLength(packetRemoved)) - sum(packetLength(packetDropped))))"
attr title "queue bit length, max"
attr unit b
scalar PubSubNetwork.switch.eth[50].queue queueBitLength:timeavg 4.59818496
attr autoWarmupFilter false
attr interpolationmode sample-hold
attr recordingmode timeavg
attr source "warmup(atomic(constant0(packetPushEnded) + sum(packetLength(packetPushStarted)) - sum(packetLength(packetPulled)) - sum(packetLength(packetRemoved)) - sum(packetLength(packetDropped))))"
attr title "queue bit length, timeavg"
attr unit b
statistic PubSubNetwork.switch.eth[50].queue queueingTime:histogram
field count 67
field mean 0.00013355462686567
field stddev 9.8740027656473e-05
field min 0
field max 0.00032256
field sum 0.00894816
field sqrsum 1.838541312e-06
attr interpolationmode none
attr recordingmode histogram
attr source queueingTime(packetPulled)
attr title "queueing times"
attr unit s
bin	-inf	0
bin	0	10
bin	5e-06	1
bin	1e-05	1
bin	1.5e-05	0
bin	2e-05	1
bin	2.5e-05	1
bin	3e-05	1
bin	3.5e-05	0
bin	4e-05	1
bin	4.5e-05	1
bin	5e-05	1
bin	5.5e-05	0
bin	6e-05	1
bin	6.5e-05	1
bin	7e-05	1
bin	7.5e-05	0
bin	8e-05	1
bin	8.5e-05	1
bin	9e-05	1
bin	9.5e-05	0
bin	0.0001	1
bin	0.000105	1
bin	0.00011	1
bin	0.000115	9
bin	0.00012	1
bin	0.000125	1
bin	0.00013	1
bin	0.000135	0
bin	0.00014	1
bin	0.000145	1
bin	0.00015	1
bin	0.000155	0
bin	0.00016	1
bin	0.000165	1
bin	0.00017	1
bin	0.000175	0
bin	0.00018	1
bin	0.000185	1
bin	0.00019	1
bin	0.000195	0
bin	0.0002	1
bin	0.000205	1
bin	0.00021	0
bin	0.000215	1
bin	0.00022	1
bin	0.000225	1
bin	0.00023	0
bin	0.000235	1
bin	0.00024	1
bin	0.000245	1
bin	0.00025	0
bin	0.000255	1
bin	0.00026	1
bin	0.000265	1
bin	0.00027	0
bin	0.000275	1
bin	0.00028	1
bin	0.000285	1
bin	0.00029	0
bin	0.000295	1
bin	0.0003	1
bin	0.000305	1
bin	0.00031	0
bin	0.000315	1
bin	0.00032	1
bin	0.000325	0
bin	0.00033	0
bin	0.000335	0
bin	0.00034	0
bin	0.000345	0
bin	0.00035	0
bin	0.000355	0
bin	0.00036	0
bin	0.000365	0
bin	0.00037	0
bin	0.000375	0
bin	0.00038	0
bin	0.000385	0
bin	0.00039	0
bin	0.000395	0
bin	0.0004	0
bin	0.000405	0
scalar PubSubNetwork.switch.eth[50].queue outgoingPackets:count 67
attr recordingmode count
attr source packetPulled
attr title "outgoing packets, count"
attr unit pk
scalar PubSubNetwork.switch.eth[50].queue outgoingPacketLengths:sum 139136
attr interpolationmode none
attr recordingmode sum
attr source packetLength(packetPulled)
attr title "outgoing packet lengths, sum"
attr unit b
statistic PubSubNetwork.switch.eth[50].queue outgoingPacketLengths:histogram
field count 67
field mean 2076.6567164179
field stddev 3995.6548883045
field min 512
field max 12144
field sum 139136
field sqrsum 1342644736
attr interpolationmode none
attr recordingmode histogram
attr source packetLength(packetPulled)
attr title "outgoing packet lengths"
attr unit b
bin	-inf	0
bin	0	0
bin	200	0
bin	400	58
bin	600	0
bin	800	0
bin	1000	0
bin	1200	0
bin	1400	0
bin	1600	0
bin	1800	0
bin	2000	0
bin	2200	0
bin	2400	0
bin	2600	0
bin	2800	0
bin	3000	0
bin	3200	0
bin	3400	0
bin	3600	0
bin	3800	0
bin	4000	0
bin	4200	0
bin	4400	0
bin	4600	0
bin	4800	0
bin	5000	0
bin	5200	0
bin	5400	0
bin	5600	0
bin	5800	0
bin	6000	0
bin	6200	0
bin	6400	0
bin	6600	0
bin	6800	0
bin	7000	0
bin	7200	0
bin	7400	0
bin	7600	0
bin	7800	0
bin	8000	0
bin	8200	0
bin	8400	0
bin	8600	0
bin	8800	0
bin	9000	0
bin	9200	0
bin	9400	0
bin	9600	0
bin	9800	0
bin	10000	0
bin	10200	0
bin	10400	0
bin	10600	0
bin	10800	0
bin	11000	0
bin	11200	0
bin	11400	0
bin	11600	0
bin	11800	0
bin	12000	9
bin	12200	0
bin	12400	0
bin	12600	0
bin	12800	0
bin	13000	0
bin	13200	0
bin	13400	0
bin	13600	0
bin	13800	0
bin	14000	0
bin	14200	0
bin	14400	0
bin	14600	0
bin	14800	0
bin	15000	0
bin	15200	0
statistic PubSubNetwork.switch.eth[50].queue flowQueueingTime:histogram
field count 0
field mean -nan
field stddev nan
field min nan
field max nan
field sum 0
field sqrsum 0
attr interpolationmode none
attr recordingmode histogram
attr source queueingTime(demuxFlow(packetPulled))
attr title "flow queueing times"
attr unit s
bin	-inf	0
bin	0	0
bin	1	0
scalar PubSubNetwork.switch.eth[50].queue incomingPackets:count 67
attr recordingmode count
attr source packetPushStarted
attr title "incoming packets, count"
attr unit pk
scalar PubSubNetwork.switch.eth[50].queue incomingPacketLengths:sum 139136
attr interpolationmode none
attr recordingmode sum
attr source packetLength(packetPushStarted)
attr title "incoming packet lengths, sum"
attr unit b
statistic PubSubNetwork.switch.eth[50].queue incomingPacketLengths:histogram
field count 67
field mean 2076.6567164179
field stddev 3995.6548883045
field min 512
field max 12144
field sum 139136
field sqrsum 1342644736
attr interpolationmode none
attr recordingmode histogram
attr source packetLength(packetPushStarted)
attr title "incoming packet lengths"
attr unit b
bin	-inf	0
bin	0	0
bin	200	0
bin	400	58
bin	600	0
bin	800	0
bin	1000	0
bin	1200	0
bin	1400	0
bin	1600	0
bin	1800	0
bin	2000	0
bin	2200	0
bin	2400	0
bin	2600	0
bin	2800	0
bin	3000	0
bin	3200	0
bin	3400	0
bin	3600	0
bin	3800	0
bin	4000	0
bin	4200	0
bin	4400	0
bin	4600	0
bin	4800	0
bin	5000	0
bin	5200	0
bin	5400	0
bin	5600	0
bin	5800	0
bin	6000	0
bin	6200	0
bin	6400	0
bin	6600	0
bin	6800	0
bin	7000	0
bin	7200	0
bin	7400	0
bin	7600	0
bin	7800	0
bin	8000	0
bin	8200	0
bin	8400	0
bin	8600	0
bin	8800	0
bin	9000	0
bin	9200	0
bin	9400	0
bin	9600	0
bin	9800	0
bin	10000	0
bin	10200	0
bin	10400	0
bin	10600	0
bin	10800	0
bin	11000	0
bin	11200	0
bin	11400	0
bin	11600	0
bin	11800	0
bin	12000	9
bin	12200	0
bin	12400	0
bin	12600	0
bin	12800	0
bin	13000	0
bin	13200	0
bin	13400	0
bin	13600	0
bin	13800	0
bin	14000	0
bin	14200	0
bin	14400	0
bin	14600	0
bin	14800	0
bin	15000	0
bin	15200	0
scalar PubSubNetwork.switch.eth[50].queue droppedPacketsQueueOverflow:count 0
attr interpolationmode none
attr recordingmode count
attr source packetDropReasonIsQueueOverflow(packetDropped)
attr title "dropped packets: queue overflow, count"
attr unit pk
scalar PubSubNetwork.switch.eth[50].queue droppedPacketLengthsQueueOverflow:sum 0
attr interpolationmode none
attr recordingmode sum
attr source packetLength(packetDropReasonIsQueueOverflow(packetDropped))
attr title "dropped packet lengths: queue overflow, sum"
attr unit b
par PubSubNetwork.switch.eth[50].mac typename "\"inet.linklayer.ethernet.basic.EthernetMac\""
par PubSubNetwork.switch.eth[50].mac interfaceTableModule "\"PubSubNetwork.switch.interfaceTable\""
par PubSubNetwork.switch.eth[50].mac displayStringTextFormat "\"rate: %b\\nsent: %s, rcvd: %r\\nqueue: %q, drop: %d\""
par PubSubNetwork.switch.eth[50].mac sendRawBytes false
par PubSubNetwork.switch.eth[50].mac promiscuous true
par PubSubNetwork.switch.eth[50].mac duplexMode true
par PubSubNetwork.switch.eth[50].mac mtu 1500B
attr unit B
par PubSubNetwork.switch.eth[50].mac fcsMode "\"declared\""
attr enum declared,computed
par PubSubNetwork.switch.eth[50].mac stopOperationExtraTime -1s
attr unit s
par PubSubNetwork.switch.eth[50].mac stopOperationTimeout 2s
attr unit s
scalar PubSubNetwork.switch.eth[50].mac "simulated time" 1
scalar PubSubNetwork.switch.eth[50].mac full-duplex 1
scalar PubSubNetwork.switch.eth[50].mac "frames/sec sent" 67
scalar PubSubNetwork.switch.eth[50].mac "frames/sec rcvd" 1
scalar PubSubNetwork.switch.eth[50].mac "bits/sec sent" 139136
scalar PubSubNetwork.switch.eth[50].mac "bits/sec rcvd" 512
scalar PubSubNetwork.switch.eth[50].mac "rx channel idle (%)" 99.999424
scalar PubSubNetwork.switch.eth[50].mac "rx channel utilization (%)" 0.000576
scalar PubSubNetwork.switch.eth[50].mac rxPausePkUnits:count 0
attr interpolationmode none
attr recordingmode count
attr title "pause units received, count"
scalar PubSubNetwork.switch.eth[50].mac rxPausePkUnits:sum 0
attr interpolationmode none
attr recordingmode sum
attr title "pause units received, sum"
scalar PubSubNetwork.switch.eth[50].mac txPausePkUnits:count 0
attr interpolationmode none
attr recordingmode count
attr title "pause units sent, count"
scalar PubSubNetwork.switch.eth[50].mac txPausePkUnits:sum 0
attr interpolationmode none
attr recordingmode sum
attr title "pause units sent, sum"
scalar PubSubNetwork.switch.eth[50].mac rxPkOk:count 1
attr interpolationmode none
attr recordingmode count
attr source rxPkOk
attr title "packets received OK, count"
scalar PubSubNetwork.switch.eth[50].mac rxPkOk:sum(packetBytes) 64
attr interpolationmode none
attr recordingmode sum(packetBytes)
attr source rxPkOk
attr title "packets received OK, sum(packetBytes)"
scalar PubSubNetwork.switch.eth[50].mac txPk:count 67
attr interpolationmode none
attr recordingmode count
attr source packetSentToLower
attr title "packets transmitted, count"
scalar PubSubNetwork.switch.eth[50].mac txPk:sum(packetBytes) 17392
attr interpolationmode none
attr recordingmode sum(packetBytes)
attr source packetSentToLower
attr title "packets transmitted, sum(packetBytes)"
scalar PubSubNetwork.switch.eth[50].mac packetReceivedFromUpper:count 67
attr interpolationmode none
attr recordingmode count
attr source packetReceivedFromUpper
attr title "packet bytes from higher layer, count"
scalar PubSubNetwork.switch.eth[50].mac packetReceivedFromUpper:sum(packetBytes) 17392
attr interpolationmode none
attr recordingmode sum(packetBytes)
attr source packetReceivedFromUpper
attr title "packet bytes from higher layer, sum(packetBytes)"
scalar PubSubNetwork.switch.eth[50].mac passedUpPk:count 1
attr interpolationmode none
attr recordingmode count
attr source packetSentToUpper
attr title "packets passed to higher layer, count"
scalar PubSubNetwork.switch.eth[50].mac passedUpPk:sum(packetBytes) 64
attr interpolationmode none
attr recordingmode sum(packetBytes)
attr source packetSentToUpper
attr title "packets passed to higher layer, sum(packetBytes)"
scalar PubSubNetwork.switch.eth[50].mac packetDropIncorrectlyReceived:count 0
attr interpolationmode none
attr recordingmode count
attr source packetDropReasonIsIncorrectlyReceived(packetDropped)
attr title "packet drop: incorrectly received, count"
scalar PubSubNetwork.switch.eth[50].mac packetDropIncorrectlyReceived:sum(packetBytes) 0
attr interpolationmode none
attr recordingmode sum(packetBytes)
attr source packetDropReasonIsIncorrectlyReceived(packetDropped)
attr title "packet drop: incorrectly received, sum(packetBytes)"
scalar PubSubNetwork.switch.eth[50].mac packetDropInterfaceDown:count 0
attr interpolationmode none
attr recordingmode count
attr source packetDropReasonIsInterfaceDown(packetDropped)
attr title "packet drop: interface down, count"
scalar PubSubNetwork.switch.eth[50].mac packetDropInterfaceDown:sum(packetBytes) 0
attr interpolationmode none
attr recordingmode sum(packetBytes)
attr source packetDropReasonIsInterfaceDown(packetDropped)
attr title "packet drop: interface down, sum(packetBytes)"
scalar PubSubNetwork.switch.eth[50].mac packetDropNotAddressedToUs:count 0
attr interpolationmode none
attr recordingmode count
attr source packetDropReasonIsNotAddressedToUs(packetDropped)
attr title "packet drop: not addressed to us, count"
scalar PubSubNetwork.switch.eth[50].mac packetDropNotAddressedToUs:sum(packetBytes) 0
attr interpolationmode none
attr recordingmode sum(packetBytes)
attr source packetDropReasonIsNotAddressedToUs(packetDropped)
attr title "packet drop: not addressed to us, sum(packetBytes)"
par PubSubNetwork.switch.eth[50] typename "\"inet.linklayer.ethernet.EthernetInterface\""
par PubSubNetwork.switch.eth[50] displayStringTextFormat "\"%a (%i)\\n%m\""
par PubSubNetwork.switch.eth[50] recordPcap false
par PubSubNetwork.switch.eth[50] numPcapRecorders 0
par PubSubNetwork.switch.eth[50] interfaceTableModule "\"PubSubNetwork.switch.interfaceTable\""
par PubSubNetwork.switch.eth[50] protocol "\"ethernetmac\""
par PubSubNetwork.switch.eth[50] address "\"0A-AA-00-00-00-66\""
attr mutable ""
par PubSubNetwork.switch.eth[50] duplexMode true
par PubSubNetwork.switch.eth[50] csmacdSupport false
par PubSubNetwork.switch.eth[50] bitrate 0bps
attr unit bps
par PubSubNetwork.switch.eth[50] fcsMode "\"declared\""
attr enum declared,computed
scalar PubSubNetwork.switch.eth[50] packetDropInterfaceDown:count 0
attr interpolationmode none
attr recordingmode count
attr source packetDropReasonIsInterfaceDown(packetDropped)
attr title "packet drops: interface down, count"
scalar PubSubNetwork.switch.eth[50] packetDropInterfaceDown:sum(packetBytes) 0
attr interpolationmode none
attr recordingmode sum(packetBytes)
attr source packetDropReasonIsInterfaceDown(packetDropped)
attr title "packet drops: interface down, sum(packetBytes)"
scalar PubSubNetwork.switch.eth[50] packetDropNoCarrier:count 0
attr interpolationmode none
attr recordingmode count
attr source packetDropReasonIsNoCarrier(packetDropped)
attr title "packet drops: no carrier, count"
scalar PubSubNetwork.switch.eth[50] packetDropNoCarrier:sum(packetBytes) 0
attr interpolationmode none
attr recordingmode sum(packetBytes)
attr source packetDropReasonIsNoCarrier(packetDropped)
attr title "packet drops: no carrier, sum(packetBytes)"
par PubSubNetwork.switch typename "\"inet.node.ethernet.EthernetSwitch\""
par PubSubNetwork.switch recordPcap false
par PubSubNetwork.switch numPcapRecorders 0
par PubSubNetwork.switch numApps 0
par PubSubNetwork.switch hasStatus false
par PubSubNetwork.switch hasStp false
par PubSubNetwork.switch hasGptp false
par PubSubNetwork.switch hasCutthroughSwitching false
par PubSubNetwork.switch fcsMode "\"declared\""
attr enum declared,computed
par PubSubNetwork.switch spanningTreeProtocol "\"Stp\""
par PubSubNetwork.switch numEthInterfaces 0
par PubSubNetwork typename "\"pubsub.simulations.PubSubNetwork\""
par PubSubNetwork numSubscribers 50
par PubSubNetwork numPublishers 1

